1
    SWAT Jun 11 2014    VER 2012/Rev 627                                                                 0/ 0/   0      0: 0: 0

    General Input/Output section (file.cio):                                        
    7/12/2007 12:00:00 AMARCGIS-SWAT interface AV                                   
                                                                                    


       SUB      GIS  MON   AREAkm2  PRECIPmm SNOMELTmm     PETmm      ETmm      SWmm    PERCmm    SURQmm    GW_Qmm    WYLDmm ORGPkg/ha SOLPkg/ha SEDPkg/ha
BIGSUB   1        0    1.37027E+02 0.100E+01 0.000E+00 0.407E-01 0.204E-01 0.104E+03 0.000E+00 0.155E-01 0.145E+00 0.470E+00 0.466E-05 0.180E-04 0.112E-04 0.140E-44
BIGSUB   1        0    2.37027E+02 0.000E+00 0.000E+00 0.518E+00 0.259E+00 0.104E+03 0.000E+00 0.955E-02 0.138E+00 0.454E+00 0.224E-05 0.100E-04 0.494E-05 0.140E-44
BIGSUB   1        0    3.37027E+02 0.610E+01 0.460E+01 0.000E+00 0.000E+00 0.112E+03 0.000E+00 0.134E+01 0.133E+00 0.178E+01 0.513E-02 0.366E-02 0.147E-01 0.140E-44
BIGSUB   1        0    4.37027E+02 0.560E+01 0.153E+02 0.000E+00 0.000E+00 0.119E+03 0.331E+00 0.665E+01 0.134E+00 0.708E+01 0.175E-01 0.146E-01 0.472E-01 0.140E-44
BIGSUB   1        0    5.37027E+02 0.500E+00 0.135E+02 0.319E+00 0.160E+00 0.115E+03 0.762E+01 0.757E+01 0.279E+00 0.817E+01 0.213E-01 0.151E-01 0.562E-01 0.140E-44
BIGSUB   1        0    6.37027E+02 0.280E+01 0.226E+02 0.000E+00 0.000E+00 0.115E+03 0.597E+01 0.125E+02 0.468E+00 0.133E+02 0.331E-01 0.240E-01 0.853E-01 0.140E-44
BIGSUB   1        0    7.37027E+02 0.117E+02 0.286E+02 0.438E+00 0.219E+00 0.115E+03 0.644E+01 0.215E+02 0.686E+00 0.225E+02 0.577E-01 0.408E-01 0.147E+00 0.140E-44
BIGSUB   1        0    8.37027E+02 0.218E+02 0.526E+01 0.630E+00 0.461E+00 0.103E+03 0.127E+02 0.202E+02 0.104E+01 0.216E+02 0.531E-01 0.368E-01 0.133E+00 0.140E-44
BIGSUB   1        0    9.37027E+02 0.284E+02 0.000E+00 0.912E+00 0.668E+00 0.956E+02 0.183E+02 0.134E+02 0.156E+01 0.154E+02 0.380E-01 0.234E-01 0.944E-01 0.140E-44
BIGSUB   1        0   10.37027E+02 0.280E+01 0.000E+00 0.275E+00 0.202E+00 0.957E+02 0.153E+01 0.737E+01 0.184E+01 0.970E+01 0.168E-01 0.112E-01 0.390E-01 0.140E-44
BIGSUB   1        0   11.37027E+02 0.000E+00 0.000E+00 0.225E+01 0.165E+01 0.941E+02 0.640E-04 0.429E+01 0.195E+01 0.673E+01 0.796E-02 0.576E-02 0.169E-01 0.140E-44
BIGSUB   1        0   12.37027E+02 0.000E+00 0.000E+00 0.705E+00 0.520E+00 0.936E+02 0.235E-06 0.257E+01 0.198E+01 0.502E+01 0.400E-02 0.312E-02 0.765E-02 0.140E-44
BIGSUB   1        0   13.37027E+02 0.300E+01 0.000E+00 0.569E+00 0.285E+00 0.933E+02 0.000E+00 0.157E+01 0.195E+01 0.400E+01 0.213E-02 0.176E-02 0.364E-02 0.140E-44
BIGSUB   1        0   14.37027E+02 0.000E+00 0.000E+00 0.124E+01 0.618E+00 0.927E+02 0.000E+00 0.976E+00 0.190E+01 0.334E+01 0.119E-02 0.103E-02 0.182E-02 0.140E-44
BIGSUB   1        0   15.37027E+02 0.000E+00 0.000E+00 0.457E+00 0.229E+00 0.924E+02 0.000E+00 0.614E+00 0.183E+01 0.291E+01 0.692E-03 0.621E-03 0.962E-03 0.140E-44
BIGSUB   1        0   16.37027E+02 0.173E+02 0.000E+00 0.000E+00 0.000E+00 0.924E+02 0.000E+00 0.391E+00 0.176E+01 0.261E+01 0.416E-03 0.382E-03 0.534E-03 0.140E-44
BIGSUB   1        0   17.37027E+02 0.000E+00 0.000E+00 0.941E+00 0.471E+00 0.920E+02 0.000E+00 0.251E+00 0.168E+01 0.239E+01 0.257E-03 0.238E-03 0.309E-03 0.140E-44
BIGSUB   1        0   18.37027E+02 0.100E+01 0.000E+00 0.821E+00 0.410E+00 0.915E+02 0.000E+00 0.162E+00 0.160E+01 0.222E+01 0.161E-03 0.151E-03 0.185E-03 0.140E-44
BIGSUB   1        0   19.37027E+02 0.800E+00 0.000E+00 0.000E+00 0.000E+00 0.915E+02 0.000E+00 0.105E+00 0.153E+01 0.208E+01 0.103E-03 0.961E-04 0.114E-03 0.140E-44
BIGSUB   1        0   20.37027E+02 0.800E+00 0.000E+00 0.000E+00 0.000E+00 0.915E+02 0.000E+00 0.682E-01 0.146E+01 0.197E+01 0.661E-04 0.617E-04 0.716E-04 0.140E-44
BIGSUB   1        0   21.37027E+02 0.000E+00 0.000E+00 0.544E-01 0.270E-01 0.915E+02 0.000E+00 0.445E-01 0.139E+01 0.188E+01 0.428E-04 0.399E-04 0.456E-04 0.140E-44
BIGSUB   1        0   22.37027E+02 0.000E+00 0.000E+00 0.665E+00 0.330E+00 0.912E+02 0.000E+00 0.291E-01 0.133E+01 0.179E+01 0.279E-04 0.258E-04 0.293E-04 0.140E-44
BIGSUB   1        0   23.37027E+02 0.208E+02 0.000E+00 0.271E+00 0.134E+00 0.911E+02 0.000E+00 0.191E-01 0.126E+01 0.172E+01 0.182E-04 0.168E-04 0.190E-04 0.140E-44
BIGSUB   1        0   24.37027E+02 0.510E+01 0.000E+00 0.000E+00 0.000E+00 0.911E+02 0.000E+00 0.125E-01 0.120E+01 0.165E+01 0.119E-04 0.110E-04 0.124E-04 0.140E-44
BIGSUB   1        0   25.37027E+02 0.000E+00 0.000E+00 0.136E+00 0.666E-01 0.910E+02 0.000E+00 0.825E-02 0.115E+01 0.158E+01 0.785E-05 0.719E-05 0.812E-05 0.140E-44
BIGSUB   1        0   26.37027E+02 0.000E+00 0.000E+00 0.118E+00 0.578E-01 0.909E+02 0.000E+00 0.544E-02 0.109E+01 0.152E+01 0.517E-05 0.471E-05 0.533E-05 0.140E-44
BIGSUB   1        0   27.37027E+02 0.000E+00 0.000E+00 0.483E+00 0.237E+00 0.907E+02 0.000E+00 0.359E-02 0.104E+01 0.146E+01 0.341E-05 0.309E-05 0.351E-05 0.140E-44
BIGSUB   1        0   28.37027E+02 0.000E+00 0.000E+00 0.626E-01 0.305E-01 0.907E+02 0.000E+00 0.237E-02 0.993E+00 0.141E+01 0.225E-05 0.204E-05 0.231E-05 0.140E-44
BIGSUB   1        0   29.37027E+02 0.000E+00 0.000E+00 0.547E+00 0.266E+00 0.904E+02 0.000E+00 0.156E-02 0.947E+00 0.136E+01 0.149E-05 0.134E-05 0.153E-05 0.140E-44
BIGSUB   1        0   30.37027E+02 0.250E+01 0.000E+00 0.942E-01 0.454E-01 0.904E+02 0.000E+00 0.103E-02 0.902E+00 0.131E+01 0.984E-06 0.884E-06 0.101E-05 0.140E-44
BIGSUB   1        0   31.37027E+02 0.000E+00 0.000E+00 0.632E+00 0.316E+00 0.904E+02 0.000E+00 0.685E-03 0.859E+00 0.126E+01 0.651E-06 0.584E-06 0.667E-06 0.140E-44
BIGSUB   1        0   32.37027E+02 0.000E+00 0.000E+00 0.805E+00 0.402E+00 0.904E+02 0.000E+00 0.454E-03 0.819E+00 0.122E+01 0.431E-06 0.386E-06 0.442E-06 0.140E-44
BIGSUB   1        0   33.37027E+02 0.000E+00 0.000E+00 0.345E-01 0.172E-01 0.904E+02 0.000E+00 0.301E-03 0.780E+00 0.117E+01 0.286E-06 0.255E-06 0.293E-06 0.140E-44
BIGSUB   1        0   34.37027E+02 0.000E+00 0.000E+00 0.109E+01 0.543E+00 0.904E+02 0.000E+00 0.199E-03 0.744E+00 0.113E+01 0.190E-06 0.169E-06 0.194E-06 0.140E-44
BIGSUB   1        0   35.37027E+02 0.000E+00 0.000E+00 0.106E+01 0.513E+00 0.898E+02 0.000E+00 0.132E-03 0.708E+00 0.109E+01 0.126E-06 0.112E-06 0.129E-06 0.140E-44
BIGSUB   1        0   36.37027E+02 0.000E+00 0.000E+00 0.694E-01 0.328E-01 0.898E+02 0.000E+00 0.879E-04 0.675E+00 0.106E+01 0.838E-07 0.743E-07 0.859E-07 0.140E-44
BIGSUB   1        0   37.37027E+02 0.000E+00 0.000E+00 0.758E+00 0.357E+00 0.895E+02 0.000E+00 0.584E-04 0.643E+00 0.102E+01 0.557E-07 0.493E-07 0.572E-07 0.140E-44
BIGSUB   1        0   38.37027E+02 0.000E+00 0.000E+00 0.110E+01 0.509E+00 0.889E+02 0.000E+00 0.389E-04 0.613E+00 0.986E+00 0.371E-07 0.328E-07 0.382E-07 0.140E-44
BIGSUB   1        0   39.37027E+02 0.000E+00 0.000E+00 0.110E+01 0.502E+00 0.884E+02 0.000E+00 0.259E-04 0.584E+00 0.954E+00 0.248E-07 0.219E-07 0.256E-07 0.140E-44
BIGSUB   1        0   40.37027E+02 0.000E+00 0.000E+00 0.104E+01 0.520E+00 0.884E+02 0.000E+00 0.173E-04 0.556E+00 0.923E+00 0.166E-07 0.146E-07 0.172E-07 0.140E-44
BIGSUB   1        0   41.37027E+02 0.000E+00 0.000E+00 0.356E+00 0.178E+00 0.884E+02 0.000E+00 0.116E-04 0.530E+00 0.893E+00 0.111E-07 0.980E-08 0.116E-07 0.140E-44
BIGSUB   1        0   42.37027E+02 0.000E+00 0.000E+00 0.175E+01 0.874E+00 0.884E+02 0.000E+00 0.782E-05 0.505E+00 0.864E+00 0.749E-08 0.661E-08 0.794E-08 0.140E-44
BIGSUB   1        0   43.37027E+02 0.168E+02 0.000E+00 0.460E+00 0.230E+00 0.884E+02 0.000E+00 0.531E-05 0.481E+00 0.837E+00 0.509E-08 0.450E-08 0.550E-08 0.140E-44
BIGSUB   1        0   44.37027E+02 0.000E+00 0.000E+00 0.959E+00 0.480E+00 0.884E+02 0.000E+00 0.364E-05 0.459E+00 0.811E+00 0.349E-08 0.310E-08 0.387E-08 0.140E-44
BIGSUB   1        0   45.37027E+02 0.000E+00 0.000E+00 0.299E+00 0.133E+00 0.883E+02 0.000E+00 0.253E-05 0.437E+00 0.786E+00 0.243E-08 0.217E-08 0.280E-08 0.140E-44
BIGSUB   1        0   46.37027E+02 0.000E+00 0.000E+00 0.328E+00 0.145E+00 0.882E+02 0.000E+00 0.179E-05 0.417E+00 0.762E+00 0.172E-08 0.155E-08 0.209E-08 0.140E-44
BIGSUB   1        0   47.37027E+02 0.000E+00 0.000E+00 0.420E+00 0.185E+00 0.880E+02 0.000E+00 0.129E-05 0.397E+00 0.739E+00 0.125E-08 0.113E-08 0.162E-08 0.140E-44
BIGSUB   1        0   48.37027E+02 0.280E+01 0.000E+00 0.000E+00 0.000E+00 0.880E+02 0.000E+00 0.966E-06 0.378E+00 0.717E+00 0.939E-09 0.860E-09 0.132E-08 0.140E-44
BIGSUB   1        0   49.37027E+02 0.178E+02 0.000E+00 0.000E+00 0.000E+00 0.880E+02 0.000E+00 0.754E-06 0.360E+00 0.696E+00 0.745E-09 0.685E-09 0.115E-08 0.140E-44
BIGSUB   1        0   50.37027E+02 0.230E+01 0.117E+02 0.000E+00 0.000E+00 0.101E+03 0.000E+00 0.407E+00 0.345E+00 0.108E+01 0.130E-02 0.192E-02 0.390E-02 0.140E-44
BIGSUB   1        0   51.37027E+02 0.000E+00 0.000E+00 0.648E+00 0.324E+00 0.101E+03 0.000E+00 0.244E+00 0.329E+00 0.903E+00 0.505E-03 0.794E-03 0.149E-02 0.140E-44
BIGSUB   1        0   52.37027E+02 0.000E+00 0.000E+00 0.348E+00 0.174E+00 0.101E+03 0.000E+00 0.134E+00 0.314E+00 0.774E+00 0.205E-03 0.350E-03 0.588E-03 0.140E-44
BIGSUB   1        0   53.37027E+02 0.000E+00 0.000E+00 0.699E+00 0.349E+00 0.101E+03 0.000E+00 0.764E-01 0.300E+00 0.699E+00 0.866E-04 0.164E-03 0.239E-03 0.140E-44
BIGSUB   1        0   54.37027E+02 0.150E+01 0.000E+00 0.000E+00 0.000E+00 0.101E+03 0.000E+00 0.450E-01 0.286E+00 0.650E+00 0.382E-04 0.809E-04 0.992E-04 0.140E-44
BIGSUB   1        0   55.37027E+02 0.224E+02 0.000E+00 0.943E+00 0.471E+00 0.101E+03 0.000E+00 0.271E-01 0.272E+00 0.616E+00 0.176E-04 0.420E-04 0.425E-04 0.140E-44
BIGSUB   1        0   56.37027E+02 0.173E+02 0.000E+00 0.000E+00 0.000E+00 0.101E+03 0.000E+00 0.166E-01 0.260E+00 0.590E+00 0.854E-05 0.228E-04 0.188E-04 0.140E-44
BIGSUB   1        0   57.37027E+02 0.000E+00 0.000E+00 0.796E+00 0.398E+00 0.101E+03 0.000E+00 0.103E-01 0.247E+00 0.568E+00 0.437E-05 0.129E-04 0.872E-05 0.140E-44
BIGSUB   1        0   58.37027E+02 0.000E+00 0.000E+00 0.117E+01 0.583E+00 0.100E+03 0.000E+00 0.649E-02 0.236E+00 0.550E+00 0.236E-05 0.755E-05 0.423E-05 0.140E-44
BIGSUB   1        0   59.37027E+02 0.250E+01 0.000E+00 0.359E-01 0.179E-01 0.100E+03 0.000E+00 0.412E-02 0.225E+00 0.533E+00 0.133E-05 0.453E-05 0.217E-05 0.140E-44
BIGSUB   1        0   60.37027E+02 0.000E+00 0.243E+02 0.436E+01 0.218E+01 0.110E+03 0.307E+01 0.499E+01 0.274E+00 0.557E+01 0.165E-01 0.117E-01 0.444E-01 0.140E-44
BIGSUB   1        0   61.37027E+02 0.000E+00 0.000E+00 0.282E+01 0.141E+01 0.105E+03 0.353E+01 0.250E+01 0.363E+00 0.319E+01 0.644E-02 0.508E-02 0.169E-01 0.140E-44
BIGSUB   1        0   62.37027E+02 0.000E+00 0.000E+00 0.122E+01 0.611E+00 0.104E+03 0.662E+00 0.136E+01 0.416E+00 0.210E+01 0.272E-02 0.239E-02 0.677E-02 0.140E-44
BIGSUB   1        0   63.37027E+02 0.230E+01 0.000E+00 0.000E+00 0.000E+00 0.104E+03 0.000E+00 0.778E+00 0.437E+00 0.154E+01 0.122E-02 0.120E-02 0.283E-02 0.140E-44
BIGSUB   1        0   64.37027E+02 0.000E+00 0.000E+00 0.392E+00 0.196E+00 0.104E+03 0.000E+00 0.461E+00 0.440E+00 0.122E+01 0.581E-03 0.640E-03 0.123E-02 0.140E-44
BIGSUB   1        0   65.37027E+02 0.000E+00 0.000E+00 0.136E+01 0.680E+00 0.104E+03 0.000E+00 0.279E+00 0.432E+00 0.103E+01 0.293E-03 0.357E-03 0.559E-03 0.140E-44
BIGSUB   1        0   66.37027E+02 0.000E+00 0.000E+00 0.174E+01 0.870E+00 0.104E+03 0.000E+00 0.173E+00 0.419E+00 0.903E+00 0.156E-03 0.206E-03 0.267E-03 0.140E-44
BIGSUB   1        0   67.37027E+02 0.690E+01 0.000E+00 0.414E+00 0.207E+00 0.104E+03 0.000E+00 0.108E+00 0.404E+00 0.820E+00 0.873E-04 0.123E-03 0.134E-03 0.140E-44
BIGSUB   1        0   68.37027E+02 0.185E+02 0.000E+00 0.000E+00 0.000E+00 0.104E+03 0.000E+00 0.687E-01 0.387E+00 0.761E+00 0.510E-04 0.751E-04 0.710E-04 0.140E-44
BIGSUB   1        0   69.37027E+02 0.000E+00 0.255E+02 0.230E+01 0.115E+01 0.104E+03 0.845E+01 0.623E+01 0.534E+00 0.710E+01 0.249E-01 0.148E-01 0.677E-01 0.140E-44
BIGSUB   1        0   70.37027E+02 0.191E+02 0.000E+00 0.475E+00 0.238E+00 0.103E+03 0.209E-03 0.315E+01 0.602E+00 0.409E+01 0.965E-02 0.647E-02 0.257E-01 0.140E-44
BIGSUB   1        0   71.37027E+02 0.130E+01 0.000E+00 0.000E+00 0.000E+00 0.103E+03 0.710E-06 0.172E+01 0.628E+00 0.268E+01 0.405E-02 0.307E-02 0.103E-01 0.140E-44
BIGSUB   1        0   72.37027E+02 0.000E+00 0.000E+00 0.973E+00 0.486E+00 0.103E+03 0.000E+00 0.986E+00 0.629E+00 0.194E+01 0.180E-02 0.155E-02 0.428E-02 0.140E-44
BIGSUB   1        0   73.37027E+02 0.580E+01 0.000E+00 0.000E+00 0.000E+00 0.103E+03 0.000E+00 0.583E+00 0.616E+00 0.152E+01 0.848E-03 0.827E-03 0.185E-02 0.140E-44
BIGSUB   1        0   74.37027E+02 0.000E+00 0.000E+00 0.139E+01 0.693E+00 0.102E+03 0.000E+00 0.354E+00 0.597E+00 0.127E+01 0.422E-03 0.461E-03 0.831E-03 0.140E-44
BIGSUB   1        0   75.37027E+02 0.000E+00 0.000E+00 0.646E+00 0.323E+00 0.102E+03 0.000E+00 0.218E+00 0.575E+00 0.111E+01 0.222E-03 0.267E-03 0.391E-03 0.140E-44
BIGSUB   1        0   76.37027E+02 0.000E+00 0.000E+00 0.999E+00 0.500E+00 0.101E+03 0.000E+00 0.137E+00 0.551E+00 0.100E+01 0.122E-03 0.159E-03 0.193E-03 0.140E-44
BIGSUB   1        0   77.37027E+02 0.530E+01 0.000E+00 0.000E+00 0.000E+00 0.101E+03 0.000E+00 0.865E-01 0.527E+00 0.924E+00 0.706E-04 0.969E-04 0.101E-03 0.140E-44
BIGSUB   1        0   78.37027E+02 0.710E+01 0.000E+00 0.000E+00 0.000E+00 0.101E+03 0.000E+00 0.552E-01 0.503E+00 0.866E+00 0.421E-04 0.600E-04 0.552E-04 0.140E-44
BIGSUB   1        0   79.37027E+02 0.000E+00 0.949E+01 0.146E+01 0.728E+00 0.109E+03 0.473E+00 0.763E+00 0.490E+00 0.156E+01 0.228E-02 0.243E-02 0.655E-02 0.140E-44
BIGSUB   1        0   80.37027E+02 0.250E+01 0.136E+02 0.698E+00 0.349E+00 0.114E+03 0.280E+01 0.406E+01 0.527E+00 0.489E+01 0.141E-01 0.965E-02 0.383E-01 0.140E-44
BIGSUB   1        0   81.37027E+02 0.107E+02 0.000E+00 0.467E+00 0.233E+00 0.114E+03 0.392E-04 0.206E+01 0.537E+00 0.289E+01 0.554E-02 0.424E-02 0.147E-01 0.140E-44
BIGSUB   1        0   82.37027E+02 0.100E+01 0.000E+00 0.663E-01 0.332E-01 0.114E+03 0.000E+00 0.112E+01 0.531E+00 0.195E+01 0.235E-02 0.202E-02 0.592E-02 0.140E-44
BIGSUB   1        0   83.37027E+02 0.000E+00 0.000E+00 0.105E+01 0.524E+00 0.113E+03 0.000E+00 0.642E+00 0.518E+00 0.145E+01 0.106E-02 0.102E-02 0.248E-02 0.140E-44
BIGSUB   1        0   84.37027E+02 0.000E+00 0.000E+00 0.304E+00 0.152E+00 0.113E+03 0.000E+00 0.379E+00 0.500E+00 0.117E+01 0.501E-03 0.545E-03 0.108E-02 0.140E-44
BIGSUB   1        0   85.37027E+02 0.000E+00 0.000E+00 0.127E+01 0.634E+00 0.113E+03 0.000E+00 0.229E+00 0.480E+00 0.998E+00 0.251E-03 0.304E-03 0.488E-03 0.140E-44
BIGSUB   1        0   86.37027E+02 0.000E+00 0.269E+02 0.225E+01 0.112E+01 0.115E+03 0.509E+01 0.900E+01 0.558E+00 0.985E+01 0.221E-01 0.191E-01 0.567E-01 0.140E-44
BIGSUB   1        0   87.37027E+02 0.000E+00 0.402E+02 0.480E+01 0.241E+01 0.104E+03 0.131E+02 0.195E+02 0.842E+00 0.207E+02 0.478E-01 0.399E-01 0.121E+00 0.140E-44
BIGSUB   1        0   88.37027E+02 0.000E+00 0.409E+02 0.365E+01 0.270E+01 0.932E+02 0.214E+02 0.161E+02 0.139E+01 0.180E+02 0.446E-01 0.326E-01 0.113E+00 0.140E-44
BIGSUB   1        0   89.37027E+02 0.000E+00 0.000E+00 0.452E+01 0.336E+01 0.899E+02 0.963E-03 0.857E+01 0.166E+01 0.107E+02 0.190E-01 0.152E-01 0.457E-01 0.140E-44
BIGSUB   1        0   90.37027E+02 0.000E+00 0.000E+00 0.480E+01 0.322E+01 0.866E+02 0.346E-05 0.484E+01 0.178E+01 0.709E+01 0.866E-02 0.763E-02 0.193E-01 0.140E-44
BIGSUB   1        0   91.37027E+02 0.208E+02 0.000E+00 0.149E+01 0.112E+01 0.948E+02 0.650E+01 0.280E+01 0.193E+01 0.524E+01 0.430E-02 0.407E-02 0.881E-02 0.140E-44
BIGSUB   1        0   92.37027E+02 0.560E+01 0.000E+00 0.193E+01 0.145E+01 0.945E+02 0.269E+01 0.165E+01 0.202E+01 0.420E+01 0.220E-02 0.226E-02 0.405E-02 0.140E-44
BIGSUB   1        0   93.37027E+02 0.100E+01 0.000E+00 0.427E+00 0.320E+00 0.951E+02 0.132E-03 0.102E+01 0.204E+01 0.358E+01 0.119E-02 0.130E-02 0.195E-02 0.140E-44
BIGSUB   1        0   94.37027E+02 0.000E+00 0.000E+00 0.325E+01 0.245E+01 0.927E+02 0.475E-06 0.659E+00 0.200E+01 0.317E+01 0.670E-03 0.776E-03 0.993E-03 0.140E-44
BIGSUB   1        0   95.37027E+02 0.000E+00 0.000E+00 0.223E+01 0.169E+01 0.910E+02 0.000E+00 0.416E+00 0.194E+01 0.287E+01 0.394E-03 0.472E-03 0.532E-03 0.140E-44
BIGSUB   1        0   96.37027E+02 0.000E+00 0.000E+00 0.256E+01 0.185E+01 0.892E+02 0.000E+00 0.265E+00 0.187E+01 0.264E+01 0.239E-03 0.292E-03 0.299E-03 0.140E-44
BIGSUB   1        0   97.37027E+02 0.000E+00 0.000E+00 0.334E+01 0.223E+01 0.869E+02 0.000E+00 0.170E+00 0.179E+01 0.246E+01 0.148E-03 0.183E-03 0.175E-03 0.140E-44
BIGSUB   1        0   98.37027E+02 0.910E+01 0.000E+00 0.118E+01 0.902E+00 0.935E+02 0.559E+00 0.864E-01 0.173E+01 0.232E+01 0.936E-04 0.116E-03 0.106E-03 0.140E-44
BIGSUB   1        0   99.37027E+02 0.203E+02 0.000E+00 0.364E+00 0.277E+00 0.957E+02 0.106E+02 0.147E+00 0.186E+01 0.257E+01 0.639E-03 0.595E-03 0.180E-02 0.140E-44
BIGSUB   1        0  100.37027E+02 0.150E+01 0.000E+00 0.949E-01 0.723E-01 0.959E+02 0.739E+00 0.723E-01 0.191E+01 0.255E+01 0.261E-03 0.264E-03 0.697E-03 0.140E-44
BIGSUB   1        0  101.37027E+02 0.000E+00 0.000E+00 0.221E+01 0.171E+01 0.942E+02 0.377E-04 0.578E-01 0.190E+01 0.252E+01 0.115E-03 0.128E-03 0.284E-03 0.140E-44
BIGSUB   1        0  102.37027E+02 0.000E+00 0.000E+00 0.335E+01 0.257E+01 0.916E+02 0.136E-06 0.354E-01 0.185E+01 0.244E+01 0.542E-04 0.658E-04 0.121E-03 0.140E-44
BIGSUB   1        0  103.37027E+02 0.000E+00 0.000E+00 0.394E+01 0.297E+01 0.886E+02 0.000E+00 0.221E-01 0.179E+01 0.236E+01 0.274E-04 0.358E-04 0.544E-04 0.140E-44
BIGSUB   1        0  104.37027E+02 0.000E+00 0.000E+00 0.404E+01 0.270E+01 0.859E+02 0.000E+00 0.139E-01 0.172E+01 0.228E+01 0.147E-04 0.204E-04 0.257E-04 0.140E-44
BIGSUB   1        0  105.37027E+02 0.100E+01 0.000E+00 0.191E+01 0.140E+01 0.855E+02 0.000E+00 0.216E-03 0.165E+01 0.219E+01 0.836E-05 0.120E-04 0.129E-04 0.140E-44
BIGSUB   1        0  106.37027E+02 0.100E+01 0.000E+00 0.322E+00 0.249E+00 0.862E+02 0.000E+00 0.841E-04 0.158E+01 0.211E+01 0.496E-05 0.722E-05 0.689E-05 0.140E-44
BIGSUB   1        0  107.37027E+02 0.000E+00 0.000E+00 0.420E+01 0.325E+01 0.830E+02 0.000E+00 0.365E-02 0.150E+01 0.204E+01 0.304E-05 0.444E-05 0.388E-05 0.140E-44
BIGSUB   1        0  108.37027E+02 0.000E+00 0.000E+00 0.393E+01 0.226E+01 0.807E+02 0.000E+00 0.236E-02 0.144E+01 0.196E+01 0.191E-05 0.277E-05 0.228E-05 0.140E-44
BIGSUB   1        0  109.37027E+02 0.211E+02 0.000E+00 0.927E+00 0.722E+00 0.942E+02 0.321E+01 0.190E-03 0.143E+01 0.198E+01 0.122E-05 0.175E-05 0.139E-05 0.140E-44
BIGSUB   1        0  110.37027E+02 0.135E+02 0.000E+00 0.154E+01 0.123E+01 0.946E+02 0.717E+01 0.704E-03 0.154E+01 0.213E+01 0.294E-05 0.314E-04 0.817E-05 0.140E-44
BIGSUB   1        0  111.37027E+02 0.000E+00 0.000E+00 0.271E+01 0.214E+01 0.925E+02 0.385E-03 0.112E-02 0.156E+01 0.215E+01 0.935E-06 0.121E-04 0.199E-05 0.140E-44
BIGSUB   1        0  112.37027E+02 0.000E+00 0.000E+00 0.266E+01 0.209E+01 0.904E+02 0.139E-05 0.601E-03 0.155E+01 0.213E+01 0.417E-06 0.482E-05 0.640E-06 0.140E-44
BIGSUB   1        0  113.37027E+02 0.000E+00 0.000E+00 0.304E+01 0.231E+01 0.881E+02 0.000E+00 0.349E-03 0.151E+01 0.208E+01 0.235E-06 0.201E-05 0.287E-06 0.140E-44
BIGSUB   1        0  114.37027E+02 0.000E+00 0.000E+00 0.265E+01 0.183E+01 0.862E+02 0.000E+00 0.213E-03 0.145E+01 0.203E+01 0.147E-06 0.873E-06 0.162E-06 0.140E-44
BIGSUB   1        0  115.37027E+02 0.000E+00 0.000E+00 0.561E+01 0.348E+01 0.828E+02 0.000E+00 0.134E-03 0.139E+01 0.196E+01 0.956E-07 0.399E-06 0.102E-06 0.140E-44
BIGSUB   1        0  116.37027E+02 0.132E+02 0.000E+00 0.569E+00 0.450E+00 0.935E+02 0.469E+00 0.860E-04 0.134E+01 0.192E+01 0.629E-07 0.194E-06 0.661E-07 0.140E-44
BIGSUB   1        0  117.37027E+02 0.000E+00 0.000E+00 0.210E+01 0.169E+01 0.918E+02 0.000E+00 0.558E-04 0.129E+01 0.186E+01 0.416E-07 0.998E-07 0.435E-07 0.140E-44
BIGSUB   1        0  118.37027E+02 0.000E+00 0.000E+00 0.275E+01 0.219E+01 0.896E+02 0.000E+00 0.365E-04 0.123E+01 0.180E+01 0.276E-07 0.547E-07 0.289E-07 0.140E-44
BIGSUB   1        0  119.37027E+02 0.000E+00 0.000E+00 0.368E+01 0.277E+01 0.868E+02 0.000E+00 0.240E-04 0.118E+01 0.174E+01 0.184E-07 0.317E-07 0.193E-07 0.140E-44
BIGSUB   1        0  120.37027E+02 0.000E+00 0.000E+00 0.453E+01 0.304E+01 0.838E+02 0.000E+00 0.159E-04 0.112E+01 0.168E+01 0.123E-07 0.191E-07 0.130E-07 0.140E-44
BIGSUB   1        0  121.37027E+02 0.000E+00 0.000E+00 0.717E+01 0.414E+01 0.796E+02 0.000E+00 0.106E-04 0.107E+01 0.162E+01 0.824E-08 0.120E-07 0.877E-08 0.140E-44
BIGSUB   1        0  122.37027E+02 0.191E+02 0.000E+00 0.311E+01 0.251E+01 0.911E+02 0.207E+01 0.707E-05 0.106E+01 0.163E+01 0.557E-08 0.766E-08 0.603E-08 0.140E-44
BIGSUB   1        0  123.37027E+02 0.000E+00 0.000E+00 0.475E+01 0.373E+01 0.874E+02 0.319E-04 0.478E-05 0.103E+01 0.160E+01 0.379E-08 0.501E-08 0.420E-08 0.140E-44
BIGSUB   1        0  124.37027E+02 0.360E+01 0.000E+00 0.753E+00 0.613E+00 0.902E+02 0.111E-06 0.327E-05 0.999E+00 0.156E+01 0.262E-08 0.335E-08 0.301E-08 0.140E-44
BIGSUB   1        0  125.37027E+02 0.230E+01 0.000E+00 0.967E+00 0.789E+00 0.915E+02 0.000E+00 0.226E-05 0.959E+00 0.152E+01 0.185E-08 0.229E-08 0.223E-08 0.140E-44
BIGSUB   1        0  126.37027E+02 0.380E+01 0.000E+00 0.121E+01 0.102E+01 0.924E+02 0.110E+01 0.161E-05 0.940E+00 0.150E+01 0.134E-08 0.160E-08 0.171E-08 0.140E-44
BIGSUB   1        0  127.37027E+02 0.800E+00 0.000E+00 0.129E+01 0.108E+01 0.921E+02 0.247E-04 0.117E-05 0.910E+00 0.147E+01 0.995E-09 0.116E-08 0.138E-08 0.140E-44
BIGSUB   1        0  128.37027E+02 0.800E+00 0.000E+00 0.218E+01 0.186E+01 0.910E+02 0.864E-07 0.886E-06 0.875E+00 0.143E+01 0.780E-09 0.874E-09 0.118E-08 0.140E-44
BIGSUB   1        0  129.37027E+02 0.740E+01 0.000E+00 0.125E+01 0.106E+01 0.930E+02 0.257E+01 0.707E-06 0.888E+00 0.145E+01 0.640E-09 0.694E-09 0.106E-08 0.140E-44
BIGSUB   1        0  130.37027E+02 0.175E+02 0.000E+00 0.299E+01 0.257E+01 0.928E+02 0.906E+01 0.256E-01 0.105E+01 0.169E+01 0.348E-03 0.290E-03 0.111E-02 0.140E-44
BIGSUB   1        0  131.37027E+02 0.000E+00 0.000E+00 0.564E+01 0.481E+01 0.880E+02 0.485E-03 0.161E-01 0.112E+01 0.175E+01 0.130E-03 0.115E-03 0.413E-03 0.140E-44
BIGSUB   1        0  132.37027E+02 0.000E+00 0.000E+00 0.496E+01 0.360E+01 0.844E+02 0.176E-05 0.802E-02 0.113E+01 0.175E+01 0.501E-04 0.482E-04 0.159E-03 0.140E-44
BIGSUB   1        0  133.37027E+02 0.000E+00 0.000E+00 0.427E+01 0.270E+01 0.817E+02 0.000E+00 0.420E-02 0.112E+01 0.172E+01 0.198E-04 0.211E-04 0.626E-04 0.140E-44
BIGSUB   1        0  134.37027E+02 0.000E+00 0.000E+00 0.690E+01 0.396E+01 0.778E+02 0.000E+00 0.227E-02 0.109E+01 0.168E+01 0.796E-05 0.966E-05 0.250E-04 0.140E-44
BIGSUB   1        0  135.37027E+02 0.000E+00 0.000E+00 0.510E+01 0.259E+01 0.752E+02 0.000E+00 0.125E-02 0.105E+01 0.164E+01 0.325E-05 0.458E-05 0.101E-04 0.140E-44
BIGSUB   1        0  136.37027E+02 0.000E+00 0.000E+00 0.494E+01 0.241E+01 0.728E+02 0.000E+00 0.697E-03 0.101E+01 0.159E+01 0.135E-05 0.225E-05 0.411E-05 0.140E-44
BIGSUB   1        0  137.37027E+02 0.000E+00 0.000E+00 0.689E+01 0.326E+01 0.695E+02 0.000E+00 0.395E-03 0.962E+00 0.154E+01 0.567E-06 0.115E-05 0.169E-05 0.140E-44
BIGSUB   1        0  138.37027E+02 0.000E+00 0.000E+00 0.532E+01 0.237E+01 0.671E+02 0.000E+00 0.226E-03 0.919E+00 0.149E+01 0.244E-06 0.600E-06 0.706E-06 0.140E-44
BIGSUB   1        0  139.37027E+02 0.000E+00 0.000E+00 0.439E+01 0.187E+01 0.653E+02 0.000E+00 0.131E-03 0.877E+00 0.144E+01 0.107E-06 0.322E-06 0.299E-06 0.140E-44
BIGSUB   1        0  140.37027E+02 0.000E+00 0.000E+00 0.789E+01 0.326E+01 0.620E+02 0.000E+00 0.763E-04 0.837E+00 0.140E+01 0.486E-07 0.177E-06 0.129E-06 0.140E-44
BIGSUB   1        0  141.37027E+02 0.000E+00 0.000E+00 0.620E+01 0.250E+01 0.595E+02 0.000E+00 0.450E-04 0.798E+00 0.135E+01 0.227E-07 0.987E-07 0.570E-07 0.140E-44
BIGSUB   1        0  142.37027E+02 0.000E+00 0.000E+00 0.606E+01 0.235E+01 0.571E+02 0.000E+00 0.267E-04 0.760E+00 0.131E+01 0.110E-07 0.559E-07 0.260E-07 0.140E-44
BIGSUB   1        0  143.37027E+02 0.000E+00 0.000E+00 0.305E+01 0.112E+01 0.560E+02 0.000E+00 0.161E-04 0.725E+00 0.127E+01 0.558E-08 0.321E-07 0.123E-07 0.140E-44
BIGSUB   1        0  144.37027E+02 0.000E+00 0.000E+00 0.573E+01 0.191E+01 0.541E+02 0.000E+00 0.974E-05 0.691E+00 0.123E+01 0.301E-08 0.186E-07 0.624E-08 0.140E-44
BIGSUB   1        0  145.37027E+02 0.000E+00 0.000E+00 0.415E+01 0.146E+01 0.527E+02 0.000E+00 0.599E-05 0.658E+00 0.119E+01 0.175E-08 0.109E-07 0.343E-08 0.140E-44
BIGSUB   1        0  146.37027E+02 0.500E+00 0.000E+00 0.239E+01 0.111E+01 0.521E+02 0.000E+00 0.378E-05 0.627E+00 0.115E+01 0.111E-08 0.654E-08 0.210E-08 0.140E-44
BIGSUB   1        0  147.37027E+02 0.000E+00 0.000E+00 0.780E+01 0.290E+01 0.492E+02 0.000E+00 0.245E-05 0.597E+00 0.112E+01 0.773E-09 0.400E-08 0.146E-08 0.140E-44
BIGSUB   1        0  148.37027E+02 0.000E+00 0.000E+00 0.769E+01 0.263E+01 0.465E+02 0.000E+00 0.165E-05 0.569E+00 0.109E+01 0.598E-09 0.251E-08 0.115E-08 0.140E-44
BIGSUB   1        0  149.37027E+02 0.740E+01 0.000E+00 0.157E+01 0.116E+01 0.522E+02 0.000E+00 0.115E-05 0.542E+00 0.106E+01 0.519E-09 0.163E-08 0.101E-08 0.140E-44
BIGSUB   1        0  150.37027E+02 0.000E+00 0.000E+00 0.599E+01 0.325E+01 0.489E+02 0.000E+00 0.845E-06 0.517E+00 0.103E+01 0.478E-09 0.112E-08 0.953E-09 0.140E-44
BIGSUB   1        0  151.37027E+02 0.559E+02 0.000E+00 0.660E+00 0.608E+00 0.878E+02 0.649E+01 0.577E-02 0.617E+00 0.123E+01 0.183E-03 0.133E-03 0.639E-03 0.140E-44
BIGSUB   1        0  152.37027E+02 0.140E+02 0.000E+00 0.200E+01 0.184E+01 0.896E+02 0.613E+01 0.386E-02 0.777E+00 0.142E+01 0.163E-03 0.108E-03 0.576E-03 0.140E-44
BIGSUB   1        0  153.37027E+02 0.000E+00 0.000E+00 0.451E+01 0.404E+01 0.855E+02 0.406E-03 0.298E-02 0.849E+00 0.148E+01 0.615E-04 0.422E-04 0.218E-03 0.140E-44
BIGSUB   1        0  154.37027E+02 0.840E+01 0.000E+00 0.110E+01 0.101E+01 0.903E+02 0.127E+01 0.256E-03 0.895E+00 0.153E+01 0.234E-04 0.170E-04 0.830E-04 0.140E-44
BIGSUB   1        0  155.37027E+02 0.000E+00 0.000E+00 0.428E+01 0.389E+01 0.864E+02 0.585E-04 0.742E-03 0.902E+00 0.154E+01 0.900E-05 0.709E-05 0.319E-04 0.140E-44
BIGSUB   1        0  156.37027E+02 0.000E+00 0.000E+00 0.435E+01 0.379E+01 0.827E+02 0.216E-06 0.398E-03 0.887E+00 0.151E+01 0.347E-05 0.305E-05 0.123E-04 0.140E-44
BIGSUB   1        0  157.37027E+02 0.000E+00 0.000E+00 0.430E+01 0.345E+01 0.792E+02 0.000E+00 0.219E-03 0.861E+00 0.148E+01 0.134E-05 0.136E-05 0.478E-05 0.140E-44
BIGSUB   1        0  158.37027E+02 0.100E+01 0.000E+00 0.772E+00 0.605E+00 0.796E+02 0.000E+00 0.123E-03 0.830E+00 0.145E+01 0.522E-06 0.633E-06 0.186E-05 0.140E-44
BIGSUB   1        0  159.37027E+02 0.800E+00 0.000E+00 0.126E+01 0.119E+01 0.792E+02 0.000E+00 0.699E-04 0.796E+00 0.141E+01 0.203E-06 0.306E-06 0.725E-06 0.140E-44
BIGSUB   1        0  160.37027E+02 0.000E+00 0.000E+00 0.457E+01 0.387E+01 0.753E+02 0.000E+00 0.402E-04 0.761E+00 0.137E+01 0.796E-07 0.154E-06 0.284E-06 0.140E-44
BIGSUB   1        0  161.37027E+02 0.000E+00 0.000E+00 0.483E+01 0.325E+01 0.721E+02 0.000E+00 0.233E-04 0.727E+00 0.132E+01 0.314E-07 0.804E-07 0.112E-06 0.140E-44
BIGSUB   1        0  162.37027E+02 0.100E+01 0.000E+00 0.135E+01 0.923E+00 0.722E+02 0.000E+00 0.136E-04 0.694E+00 0.129E+01 0.126E-07 0.433E-07 0.444E-07 0.140E-44
BIGSUB   1        0  163.37027E+02 0.940E+01 0.000E+00 0.172E+01 0.166E+01 0.790E+02 0.000E+00 0.808E-05 0.662E+00 0.126E+01 0.522E-08 0.239E-07 0.180E-07 0.140E-44
BIGSUB   1        0  164.37027E+02 0.226E+02 0.000E+00 0.209E+01 0.203E+01 0.895E+02 0.512E+01 0.792E-03 0.729E+00 0.137E+01 0.241E-04 0.363E-04 0.840E-04 0.140E-44
BIGSUB   1        0  165.37027E+02 0.345E+02 0.000E+00 0.133E+01 0.130E+01 0.925E+02 0.165E+02 0.119E+01 0.107E+01 0.299E+01 0.829E-02 0.459E-02 0.280E-01 0.140E-44
BIGSUB   1        0  166.37027E+02 0.790E+01 0.000E+00 0.707E+00 0.692E+00 0.935E+02 0.375E+01 0.600E+00 0.130E+01 0.266E+01 0.315E-02 0.198E-02 0.105E-01 0.140E-44
BIGSUB   1        0  167.37027E+02 0.360E+01 0.000E+00 0.108E+01 0.105E+01 0.933E+02 0.165E+01 0.322E+00 0.144E+01 0.252E+01 0.126E-02 0.927E-03 0.411E-02 0.140E-44
BIGSUB   1        0  168.37027E+02 0.117E+02 0.000E+00 0.907E+00 0.887E+00 0.938E+02 0.621E+01 0.177E+00 0.160E+01 0.257E+01 0.530E-03 0.463E-03 0.166E-02 0.140E-44
BIGSUB   1        0  169.37027E+02 0.140E+02 0.000E+00 0.232E+01 0.227E+01 0.928E+02 0.766E+01 0.987E-01 0.181E+01 0.274E+01 0.329E-03 0.293E-03 0.103E-02 0.140E-44
BIGSUB   1        0  170.37027E+02 0.000E+00 0.000E+00 0.668E+01 0.653E+01 0.863E+02 0.398E-03 0.758E-01 0.188E+01 0.278E+01 0.144E-03 0.153E-03 0.425E-03 0.140E-44
BIGSUB   1        0  171.37027E+02 0.000E+00 0.000E+00 0.861E+01 0.740E+01 0.789E+02 0.144E-05 0.469E-01 0.188E+01 0.274E+01 0.658E-04 0.842E-04 0.180E-03 0.140E-44
BIGSUB   1        0  172.37027E+02 0.000E+00 0.000E+00 0.549E+01 0.413E+01 0.747E+02 0.000E+00 0.294E-01 0.185E+01 0.268E+01 0.318E-04 0.482E-04 0.791E-04 0.140E-44
BIGSUB   1        0  173.37027E+02 0.150E+01 0.000E+00 0.304E+01 0.288E+01 0.734E+02 0.000E+00 0.229E-02 0.179E+01 0.259E+01 0.162E-04 0.285E-04 0.361E-04 0.140E-44
BIGSUB   1        0  174.37027E+02 0.480E+01 0.000E+00 0.259E+01 0.251E+01 0.752E+02 0.000E+00 0.884E-03 0.172E+01 0.252E+01 0.876E-05 0.172E-04 0.173E-04 0.140E-44
BIGSUB   1        0  175.37027E+02 0.160E+02 0.000E+00 0.386E+01 0.380E+01 0.857E+02 0.000E+00 0.165E-03 0.165E+01 0.246E+01 0.496E-05 0.106E-04 0.869E-05 0.140E-44
BIGSUB   1        0  176.37027E+02 0.000E+00 0.000E+00 0.699E+01 0.656E+01 0.792E+02 0.000E+00 0.494E-02 0.158E+01 0.238E+01 0.292E-05 0.663E-05 0.461E-05 0.140E-44
BIGSUB   1        0  177.37027E+02 0.300E+01 0.000E+00 0.115E+01 0.114E+01 0.809E+02 0.000E+00 0.141E-03 0.151E+01 0.230E+01 0.178E-05 0.419E-05 0.257E-05 0.140E-44
BIGSUB   1        0  178.37027E+02 0.480E+01 0.000E+00 0.161E+01 0.160E+01 0.836E+02 0.000E+00 0.741E-04 0.144E+01 0.223E+01 0.111E-05 0.267E-05 0.149E-05 0.140E-44
BIGSUB   1        0  179.37027E+02 0.000E+00 0.000E+00 0.536E+01 0.522E+01 0.784E+02 0.000E+00 0.136E-02 0.137E+01 0.215E+01 0.701E-06 0.171E-05 0.895E-06 0.140E-44
BIGSUB   1        0  180.37027E+02 0.530E+01 0.000E+00 0.993E+00 0.989E+00 0.823E+02 0.000E+00 0.200E-03 0.131E+01 0.208E+01 0.449E-06 0.110E-05 0.552E-06 0.140E-44
BIGSUB   1        0  181.37027E+02 0.244E+02 0.000E+00 0.241E+01 0.241E+01 0.917E+02 0.651E+01 0.310E-01 0.137E+01 0.223E+01 0.367E-03 0.282E-03 0.125E-02 0.140E-44
BIGSUB   1        0  182.37027E+02 0.660E+01 0.000E+00 0.204E+01 0.204E+01 0.923E+02 0.234E+01 0.132E-01 0.142E+01 0.227E+01 0.142E-03 0.120E-03 0.483E-03 0.140E-44
BIGSUB   1        0  183.37027E+02 0.300E+01 0.000E+00 0.275E+01 0.273E+01 0.916E+02 0.498E+00 0.538E-02 0.143E+01 0.227E+01 0.563E-04 0.532E-04 0.189E-03 0.140E-44
BIGSUB   1        0  184.37027E+02 0.000E+00 0.000E+00 0.481E+01 0.480E+01 0.868E+02 0.294E-04 0.553E-02 0.141E+01 0.224E+01 0.226E-04 0.247E-04 0.747E-04 0.140E-44
BIGSUB   1        0  185.37027E+02 0.150E+02 0.000E+00 0.310E+01 0.306E+01 0.914E+02 0.398E+01 0.540E-03 0.144E+01 0.229E+01 0.923E-05 0.120E-04 0.298E-04 0.140E-44
BIGSUB   1        0  186.37027E+02 0.410E+01 0.000E+00 0.178E+01 0.176E+01 0.927E+02 0.511E+00 0.144E-03 0.144E+01 0.229E+01 0.387E-05 0.603E-05 0.121E-04 0.140E-44
BIGSUB   1        0  187.37027E+02 0.000E+00 0.000E+00 0.677E+01 0.677E+01 0.860E+02 0.310E-04 0.101E-02 0.141E+01 0.225E+01 0.166E-05 0.314E-05 0.500E-05 0.140E-44
BIGSUB   1        0  188.37027E+02 0.300E+01 0.000E+00 0.294E+01 0.294E+01 0.859E+02 0.111E-06 0.397E-04 0.137E+01 0.220E+01 0.742E-06 0.168E-05 0.211E-05 0.140E-44
BIGSUB   1        0  189.37027E+02 0.318E+02 0.000E+00 0.248E+01 0.248E+01 0.927E+02 0.127E+02 0.223E+00 0.156E+01 0.270E+01 0.233E-02 0.132E-02 0.796E-02 0.140E-44
BIGSUB   1        0  190.37027E+02 0.000E+00 0.000E+00 0.529E+01 0.529E+01 0.874E+02 0.655E-03 0.128E+00 0.163E+01 0.266E+01 0.885E-03 0.544E-03 0.301E-02 0.140E-44
BIGSUB   1        0  191.37027E+02 0.150E+01 0.000E+00 0.288E+01 0.284E+01 0.861E+02 0.202E-05 0.512E-01 0.164E+01 0.259E+01 0.348E-03 0.239E-03 0.117E-02 0.140E-44
BIGSUB   1        0  192.37027E+02 0.000E+00 0.000E+00 0.477E+01 0.449E+01 0.816E+02 0.000E+00 0.414E-01 0.161E+01 0.254E+01 0.141E-03 0.111E-03 0.463E-03 0.140E-44
BIGSUB   1        0  193.37027E+02 0.000E+00 0.000E+00 0.500E+01 0.443E+01 0.771E+02 0.000E+00 0.247E-01 0.156E+01 0.246E+01 0.584E-04 0.542E-04 0.187E-03 0.140E-44
BIGSUB   1        0  194.37027E+02 0.000E+00 0.000E+00 0.574E+01 0.481E+01 0.723E+02 0.000E+00 0.151E-01 0.151E+01 0.239E+01 0.250E-04 0.279E-04 0.767E-04 0.140E-44
BIGSUB   1        0  195.37027E+02 0.000E+00 0.000E+00 0.520E+01 0.416E+01 0.682E+02 0.000E+00 0.932E-02 0.144E+01 0.231E+01 0.112E-04 0.150E-04 0.322E-04 0.140E-44
BIGSUB   1        0  196.37027E+02 0.000E+00 0.000E+00 0.588E+01 0.479E+01 0.634E+02 0.000E+00 0.584E-02 0.138E+01 0.224E+01 0.520E-05 0.841E-05 0.139E-04 0.140E-44
BIGSUB   1        0  197.37027E+02 0.970E+01 0.000E+00 0.457E+01 0.450E+01 0.678E+02 0.000E+00 0.198E-03 0.132E+01 0.217E+01 0.255E-05 0.487E-05 0.620E-05 0.140E-44
BIGSUB   1        0  198.37027E+02 0.000E+00 0.000E+00 0.593E+01 0.504E+01 0.627E+02 0.000E+00 0.235E-02 0.126E+01 0.210E+01 0.132E-05 0.290E-05 0.289E-05 0.140E-44
BIGSUB   1        0  199.37027E+02 0.000E+00 0.000E+00 0.700E+01 0.558E+01 0.571E+02 0.000E+00 0.151E-02 0.120E+01 0.204E+01 0.722E-06 0.176E-05 0.141E-05 0.140E-44
BIGSUB   1        0  200.37027E+02 0.000E+00 0.000E+00 0.467E+01 0.338E+01 0.538E+02 0.000E+00 0.976E-03 0.114E+01 0.197E+01 0.412E-06 0.109E-05 0.728E-06 0.140E-44
BIGSUB   1        0  201.37027E+02 0.940E+01 0.000E+00 0.184E+01 0.163E+01 0.607E+02 0.000E+00 0.212E-03 0.109E+01 0.192E+01 0.244E-06 0.678E-06 0.394E-06 0.140E-44
BIGSUB   1        0  202.37027E+02 0.000E+00 0.000E+00 0.477E+01 0.425E+01 0.565E+02 0.000E+00 0.412E-03 0.104E+01 0.186E+01 0.149E-06 0.428E-06 0.223E-06 0.140E-44
BIGSUB   1        0  203.37027E+02 0.000E+00 0.000E+00 0.574E+01 0.441E+01 0.521E+02 0.000E+00 0.269E-03 0.990E+00 0.180E+01 0.927E-07 0.272E-06 0.131E-06 0.140E-44
BIGSUB   1        0  204.37027E+02 0.250E+01 0.000E+00 0.161E+01 0.150E+01 0.530E+02 0.000E+00 0.176E-03 0.944E+00 0.175E+01 0.587E-07 0.174E-06 0.795E-07 0.140E-44
BIGSUB   1        0  205.37027E+02 0.000E+00 0.000E+00 0.409E+01 0.345E+01 0.496E+02 0.000E+00 0.116E-03 0.899E+00 0.169E+01 0.376E-07 0.112E-06 0.494E-07 0.140E-44
BIGSUB   1        0  206.37027E+02 0.000E+00 0.000E+00 0.606E+01 0.473E+01 0.448E+02 0.000E+00 0.763E-04 0.857E+00 0.164E+01 0.243E-07 0.725E-07 0.312E-07 0.140E-44
BIGSUB   1        0  207.37027E+02 0.000E+00 0.000E+00 0.430E+01 0.340E+01 0.414E+02 0.000E+00 0.504E-04 0.816E+00 0.160E+01 0.159E-07 0.471E-07 0.201E-07 0.140E-44
BIGSUB   1        0  208.37027E+02 0.000E+00 0.000E+00 0.595E+01 0.438E+01 0.371E+02 0.000E+00 0.333E-04 0.778E+00 0.155E+01 0.104E-07 0.308E-07 0.131E-07 0.140E-44
BIGSUB   1        0  209.37027E+02 0.000E+00 0.000E+00 0.501E+01 0.349E+01 0.336E+02 0.000E+00 0.221E-04 0.741E+00 0.151E+01 0.692E-08 0.202E-07 0.867E-08 0.140E-44
BIGSUB   1        0  210.37027E+02 0.000E+00 0.000E+00 0.595E+01 0.408E+01 0.295E+02 0.000E+00 0.147E-04 0.706E+00 0.146E+01 0.464E-08 0.133E-07 0.585E-08 0.140E-44
BIGSUB   1        0  211.37027E+02 0.000E+00 0.000E+00 0.503E+01 0.359E+01 0.259E+02 0.000E+00 0.984E-05 0.673E+00 0.142E+01 0.316E-08 0.882E-08 0.404E-08 0.140E-44
BIGSUB   1        0  212.37027E+02 0.000E+00 0.000E+00 0.491E+01 0.329E+01 0.226E+02 0.000E+00 0.662E-05 0.641E+00 0.138E+01 0.219E-08 0.589E-08 0.289E-08 0.140E-44
BIGSUB   1        0  213.37027E+02 0.000E+00 0.000E+00 0.317E+01 0.250E+01 0.201E+02 0.000E+00 0.449E-05 0.611E+00 0.135E+01 0.156E-08 0.396E-08 0.214E-08 0.140E-44
BIGSUB   1        0  214.37027E+02 0.000E+00 0.000E+00 0.336E+01 0.200E+01 0.181E+02 0.000E+00 0.309E-05 0.582E+00 0.131E+01 0.114E-08 0.273E-08 0.166E-08 0.140E-44
BIGSUB   1        0  215.37027E+02 0.000E+00 0.000E+00 0.473E+01 0.310E+01 0.150E+02 0.000E+00 0.216E-05 0.555E+00 0.128E+01 0.875E-09 0.191E-08 0.136E-08 0.140E-44
BIGSUB   1        0  216.37027E+02 0.000E+00 0.000E+00 0.390E+01 0.212E+01 0.129E+02 0.000E+00 0.156E-05 0.529E+00 0.124E+01 0.718E-09 0.138E-08 0.117E-08 0.140E-44
BIGSUB   1        0  217.37027E+02 0.000E+00 0.000E+00 0.480E+01 0.273E+01 0.102E+02 0.000E+00 0.116E-05 0.504E+00 0.121E+01 0.613E-09 0.102E-08 0.107E-08 0.140E-44
BIGSUB   1        0  218.37027E+02 0.000E+00 0.000E+00 0.510E+01 0.215E+01 0.800E+01 0.000E+00 0.892E-06 0.480E+00 0.118E+01 0.543E-09 0.803E-09 0.100E-08 0.140E-44
BIGSUB   1        0  219.37027E+02 0.000E+00 0.000E+00 0.477E+01 0.211E+01 0.589E+01 0.000E+00 0.714E-06 0.457E+00 0.115E+01 0.497E-09 0.655E-09 0.955E-09 0.140E-44
BIGSUB   1        0  220.37027E+02 0.000E+00 0.000E+00 0.447E+01 0.200E+01 0.389E+01 0.000E+00 0.596E-06 0.436E+00 0.112E+01 0.466E-09 0.557E-09 0.925E-09 0.140E-44
BIGSUB   1        0  221.37027E+02 0.000E+00 0.000E+00 0.667E+01 0.211E+01 0.178E+01 0.000E+00 0.527E-06 0.415E+00 0.110E+01 0.461E-09 0.500E-09 0.922E-09 0.140E-44
BIGSUB   1        0  222.37027E+02 0.150E+01 0.000E+00 0.120E+01 0.385E+00 0.290E+01 0.000E+00 0.486E-06 0.396E+00 0.107E+01 0.461E-09 0.468E-09 0.922E-09 0.140E-44
BIGSUB   1        0  223.37027E+02 0.119E+02 0.000E+00 0.141E+01 0.102E+01 0.126E+02 0.000E+00 0.461E-06 0.377E+00 0.106E+01 0.461E-09 0.461E-09 0.922E-09 0.140E-44
BIGSUB   1        0  224.37027E+02 0.000E+00 0.000E+00 0.389E+01 0.254E+01 0.101E+02 0.000E+00 0.461E-06 0.359E+00 0.103E+01 0.461E-09 0.461E-09 0.922E-09 0.140E-44
BIGSUB   1        0  225.37027E+02 0.000E+00 0.000E+00 0.451E+01 0.262E+01 0.746E+01 0.000E+00 0.461E-06 0.342E+00 0.101E+01 0.461E-09 0.461E-09 0.922E-09 0.140E-44
BIGSUB   1        0  226.37027E+02 0.460E+01 0.000E+00 0.275E+01 0.197E+01 0.976E+01 0.000E+00 0.461E-06 0.326E+00 0.989E+00 0.461E-09 0.461E-09 0.922E-09 0.140E-44
BIGSUB   1        0  227.37027E+02 0.000E+00 0.000E+00 0.511E+01 0.320E+01 0.656E+01 0.000E+00 0.461E-06 0.311E+00 0.967E+00 0.461E-09 0.461E-09 0.922E-09 0.140E-44
BIGSUB   1        0  228.37027E+02 0.000E+00 0.000E+00 0.428E+01 0.221E+01 0.435E+01 0.000E+00 0.461E-06 0.296E+00 0.946E+00 0.461E-09 0.461E-09 0.922E-09 0.140E-44
BIGSUB   1        0  229.37027E+02 0.230E+01 0.000E+00 0.246E+01 0.164E+01 0.493E+01 0.000E+00 0.461E-06 0.282E+00 0.927E+00 0.461E-09 0.461E-09 0.922E-09 0.140E-44
BIGSUB   1        0  230.37027E+02 0.510E+01 0.000E+00 0.348E+01 0.237E+01 0.720E+01 0.000E+00 0.461E-06 0.269E+00 0.911E+00 0.461E-09 0.461E-09 0.922E-09 0.140E-44
BIGSUB   1        0  231.37027E+02 0.000E+00 0.000E+00 0.343E+01 0.175E+01 0.545E+01 0.000E+00 0.461E-06 0.256E+00 0.892E+00 0.461E-09 0.461E-09 0.922E-09 0.140E-44
BIGSUB   1        0  232.37027E+02 0.000E+00 0.000E+00 0.286E+01 0.114E+01 0.431E+01 0.000E+00 0.461E-06 0.244E+00 0.874E+00 0.461E-09 0.461E-09 0.922E-09 0.140E-44
BIGSUB   1        0  233.37027E+02 0.000E+00 0.000E+00 0.368E+01 0.129E+01 0.302E+01 0.000E+00 0.461E-06 0.233E+00 0.857E+00 0.461E-09 0.461E-09 0.922E-09 0.140E-44
BIGSUB   1        0  234.37027E+02 0.000E+00 0.000E+00 0.401E+01 0.121E+01 0.182E+01 0.000E+00 0.461E-06 0.222E+00 0.840E+00 0.461E-09 0.461E-09 0.922E-09 0.140E-44
BIGSUB   1        0  235.37027E+02 0.000E+00 0.000E+00 0.430E+01 0.611E+00 0.121E+01 0.000E+00 0.461E-06 0.211E+00 0.823E+00 0.461E-09 0.461E-09 0.922E-09 0.140E-44
BIGSUB   1        0  236.37027E+02 0.460E+01 0.000E+00 0.149E+01 0.806E+00 0.470E+01 0.000E+00 0.461E-06 0.201E+00 0.810E+00 0.461E-09 0.461E-09 0.922E-09 0.140E-44
BIGSUB   1        0  237.37027E+02 0.000E+00 0.000E+00 0.650E+01 0.246E+01 0.223E+01 0.000E+00 0.461E-06 0.192E+00 0.795E+00 0.461E-09 0.461E-09 0.922E-09 0.140E-44
BIGSUB   1        0  238.37027E+02 0.000E+00 0.000E+00 0.471E+01 0.598E+00 0.164E+01 0.000E+00 0.461E-06 0.183E+00 0.780E+00 0.461E-09 0.461E-09 0.922E-09 0.140E-44
BIGSUB   1        0  239.37027E+02 0.000E+00 0.000E+00 0.649E+01 0.499E+00 0.114E+01 0.000E+00 0.461E-06 0.174E+00 0.766E+00 0.461E-09 0.461E-09 0.922E-09 0.140E-44
BIGSUB   1        0  240.37027E+02 0.000E+00 0.000E+00 0.427E+01 0.192E+00 0.945E+00 0.000E+00 0.461E-06 0.166E+00 0.752E+00 0.461E-09 0.461E-09 0.922E-09 0.140E-44
BIGSUB   1        0  241.37027E+02 0.800E+00 0.000E+00 0.222E+01 0.306E+00 0.144E+01 0.000E+00 0.461E-06 0.158E+00 0.738E+00 0.461E-09 0.461E-09 0.922E-09 0.140E-44
BIGSUB   1        0  242.37027E+02 0.000E+00 0.000E+00 0.454E+01 0.520E+00 0.919E+00 0.000E+00 0.461E-06 0.151E+00 0.725E+00 0.461E-09 0.461E-09 0.922E-09 0.140E-44
BIGSUB   1        0  243.37027E+02 0.300E+01 0.000E+00 0.119E+01 0.609E+00 0.315E+01 0.000E+00 0.461E-06 0.144E+00 0.714E+00 0.461E-09 0.461E-09 0.922E-09 0.140E-44
BIGSUB   1        0  244.37027E+02 0.000E+00 0.000E+00 0.314E+01 0.125E+01 0.190E+01 0.000E+00 0.461E-06 0.137E+00 0.702E+00 0.461E-09 0.461E-09 0.922E-09 0.140E-44
BIGSUB   1        0  245.37027E+02 0.102E+02 0.000E+00 0.118E+01 0.662E+00 0.105E+02 0.000E+00 0.461E-06 0.130E+00 0.699E+00 0.461E-09 0.461E-09 0.922E-09 0.140E-44
BIGSUB   1        0  246.37027E+02 0.000E+00 0.000E+00 0.419E+01 0.200E+01 0.850E+01 0.000E+00 0.461E-06 0.124E+00 0.687E+00 0.461E-09 0.461E-09 0.922E-09 0.140E-44
BIGSUB   1        0  247.37027E+02 0.000E+00 0.000E+00 0.294E+01 0.110E+01 0.740E+01 0.000E+00 0.461E-06 0.118E+00 0.676E+00 0.461E-09 0.461E-09 0.922E-09 0.140E-44
BIGSUB   1        0  248.37027E+02 0.000E+00 0.000E+00 0.527E+01 0.173E+01 0.567E+01 0.000E+00 0.461E-06 0.113E+00 0.665E+00 0.461E-09 0.461E-09 0.922E-09 0.140E-44
BIGSUB   1        0  249.37027E+02 0.000E+00 0.000E+00 0.373E+01 0.105E+01 0.462E+01 0.000E+00 0.461E-06 0.107E+00 0.654E+00 0.461E-09 0.461E-09 0.922E-09 0.140E-44
BIGSUB   1        0  250.37027E+02 0.236E+02 0.000E+00 0.120E+01 0.105E+01 0.247E+02 0.000E+00 0.461E-06 0.102E+00 0.668E+00 0.461E-09 0.461E-09 0.922E-09 0.140E-44
BIGSUB   1        0  251.37027E+02 0.510E+01 0.000E+00 0.663E+00 0.563E+00 0.285E+02 0.000E+00 0.461E-06 0.975E-01 0.665E+00 0.461E-09 0.461E-09 0.922E-09 0.140E-44
BIGSUB   1        0  252.37027E+02 0.000E+00 0.000E+00 0.248E+01 0.201E+01 0.265E+02 0.000E+00 0.461E-06 0.929E-01 0.655E+00 0.461E-09 0.461E-09 0.922E-09 0.140E-44
BIGSUB   1        0  253.37027E+02 0.000E+00 0.000E+00 0.223E+01 0.154E+01 0.249E+02 0.000E+00 0.461E-06 0.885E-01 0.645E+00 0.461E-09 0.461E-09 0.922E-09 0.140E-44
BIGSUB   1        0  254.37027E+02 0.000E+00 0.000E+00 0.227E+01 0.136E+01 0.236E+02 0.000E+00 0.461E-06 0.844E-01 0.636E+00 0.461E-09 0.461E-09 0.922E-09 0.140E-44
BIGSUB   1        0  255.37027E+02 0.000E+00 0.000E+00 0.282E+01 0.160E+01 0.220E+02 0.000E+00 0.461E-06 0.804E-01 0.626E+00 0.461E-09 0.461E-09 0.922E-09 0.140E-44
BIGSUB   1        0  256.37027E+02 0.000E+00 0.000E+00 0.438E+01 0.224E+01 0.197E+02 0.000E+00 0.461E-06 0.766E-01 0.617E+00 0.461E-09 0.461E-09 0.922E-09 0.140E-44
BIGSUB   1        0  257.37027E+02 0.000E+00 0.000E+00 0.300E+01 0.138E+01 0.183E+02 0.000E+00 0.461E-06 0.730E-01 0.609E+00 0.461E-09 0.461E-09 0.922E-09 0.140E-44
BIGSUB   1        0  258.37027E+02 0.000E+00 0.000E+00 0.353E+01 0.121E+01 0.171E+02 0.000E+00 0.461E-06 0.695E-01 0.600E+00 0.461E-09 0.461E-09 0.922E-09 0.140E-44
BIGSUB   1        0  259.37027E+02 0.410E+01 0.000E+00 0.179E+01 0.125E+01 0.197E+02 0.000E+00 0.461E-06 0.663E-01 0.594E+00 0.461E-09 0.461E-09 0.922E-09 0.140E-44
BIGSUB   1        0  260.37027E+02 0.000E+00 0.000E+00 0.280E+01 0.133E+01 0.184E+02 0.000E+00 0.461E-06 0.631E-01 0.586E+00 0.461E-09 0.461E-09 0.922E-09 0.140E-44
BIGSUB   1        0  261.37027E+02 0.000E+00 0.000E+00 0.411E+01 0.165E+01 0.167E+02 0.000E+00 0.461E-06 0.602E-01 0.578E+00 0.461E-09 0.461E-09 0.922E-09 0.140E-44
BIGSUB   1        0  262.37027E+02 0.000E+00 0.000E+00 0.244E+01 0.833E+00 0.159E+02 0.000E+00 0.461E-06 0.573E-01 0.570E+00 0.461E-09 0.461E-09 0.922E-09 0.140E-44
BIGSUB   1        0  263.37027E+02 0.000E+00 0.000E+00 0.313E+01 0.947E+00 0.150E+02 0.000E+00 0.461E-06 0.546E-01 0.562E+00 0.461E-09 0.461E-09 0.922E-09 0.140E-44
BIGSUB   1        0  264.37027E+02 0.000E+00 0.000E+00 0.374E+01 0.110E+01 0.139E+02 0.000E+00 0.461E-06 0.521E-01 0.555E+00 0.461E-09 0.461E-09 0.922E-09 0.140E-44
BIGSUB   1        0  265.37027E+02 0.280E+01 0.000E+00 0.156E+01 0.975E+00 0.156E+02 0.000E+00 0.461E-06 0.496E-01 0.549E+00 0.461E-09 0.461E-09 0.922E-09 0.140E-44
BIGSUB   1        0  266.37027E+02 0.000E+00 0.000E+00 0.262E+01 0.108E+01 0.145E+02 0.000E+00 0.461E-06 0.473E-01 0.541E+00 0.461E-09 0.461E-09 0.922E-09 0.140E-44
BIGSUB   1        0  267.37027E+02 0.000E+00 0.000E+00 0.291E+01 0.984E+00 0.135E+02 0.000E+00 0.461E-06 0.450E-01 0.534E+00 0.461E-09 0.461E-09 0.922E-09 0.140E-44
BIGSUB   1        0  268.37027E+02 0.000E+00 0.000E+00 0.316E+01 0.878E+00 0.126E+02 0.000E+00 0.461E-06 0.429E-01 0.528E+00 0.461E-09 0.461E-09 0.922E-09 0.140E-44
BIGSUB   1        0  269.37027E+02 0.000E+00 0.000E+00 0.415E+01 0.920E+00 0.117E+02 0.000E+00 0.461E-06 0.409E-01 0.521E+00 0.461E-09 0.461E-09 0.922E-09 0.140E-44
BIGSUB   1        0  270.37027E+02 0.530E+01 0.000E+00 0.758E+00 0.480E+00 0.161E+02 0.000E+00 0.461E-06 0.390E-01 0.518E+00 0.461E-09 0.461E-09 0.922E-09 0.140E-44
BIGSUB   1        0  271.37027E+02 0.000E+00 0.000E+00 0.443E+01 0.215E+01 0.140E+02 0.000E+00 0.461E-06 0.371E-01 0.511E+00 0.461E-09 0.461E-09 0.922E-09 0.140E-44
BIGSUB   1        0  272.37027E+02 0.000E+00 0.000E+00 0.207E+01 0.650E+00 0.133E+02 0.000E+00 0.461E-06 0.354E-01 0.505E+00 0.461E-09 0.461E-09 0.922E-09 0.140E-44
BIGSUB   1        0  273.37027E+02 0.150E+01 0.000E+00 0.416E+00 0.245E+00 0.146E+02 0.000E+00 0.461E-06 0.337E-01 0.499E+00 0.461E-09 0.461E-09 0.922E-09 0.140E-44
BIGSUB   1        0  274.37027E+02 0.280E+01 0.000E+00 0.197E+00 0.135E+00 0.170E+02 0.000E+00 0.461E-06 0.321E-01 0.495E+00 0.461E-09 0.461E-09 0.922E-09 0.140E-44
BIGSUB   1        0  275.37027E+02 0.000E+00 0.000E+00 0.267E+01 0.165E+01 0.153E+02 0.000E+00 0.461E-06 0.306E-01 0.489E+00 0.461E-09 0.461E-09 0.922E-09 0.140E-44
BIGSUB   1        0  276.37027E+02 0.000E+00 0.000E+00 0.147E+01 0.527E+00 0.148E+02 0.000E+00 0.461E-06 0.292E-01 0.484E+00 0.461E-09 0.461E-09 0.922E-09 0.140E-44
BIGSUB   1        0  277.37027E+02 0.000E+00 0.000E+00 0.283E+01 0.957E+00 0.139E+02 0.000E+00 0.461E-06 0.278E-01 0.478E+00 0.461E-09 0.461E-09 0.922E-09 0.140E-44
BIGSUB   1        0  278.37027E+02 0.000E+00 0.000E+00 0.227E+01 0.640E+00 0.132E+02 0.000E+00 0.461E-06 0.265E-01 0.472E+00 0.461E-09 0.461E-09 0.922E-09 0.140E-44
BIGSUB   1        0  279.37027E+02 0.000E+00 0.000E+00 0.245E+01 0.574E+00 0.126E+02 0.000E+00 0.461E-06 0.252E-01 0.467E+00 0.461E-09 0.461E-09 0.922E-09 0.140E-44
BIGSUB   1        0  280.37027E+02 0.000E+00 0.000E+00 0.128E+01 0.260E+00 0.124E+02 0.000E+00 0.461E-06 0.240E-01 0.461E+00 0.461E-09 0.461E-09 0.922E-09 0.140E-44
BIGSUB   1        0  281.37027E+02 0.353E+02 0.000E+00 0.502E+00 0.431E+00 0.422E+02 0.000E+00 0.461E-06 0.229E-01 0.504E+00 0.461E-09 0.461E-09 0.922E-09 0.140E-44
BIGSUB   1        0  282.37027E+02 0.264E+02 0.000E+00 0.321E+00 0.278E+00 0.633E+02 0.000E+00 0.461E-06 0.218E-01 0.548E+00 0.461E-09 0.461E-09 0.922E-09 0.140E-44
BIGSUB   1        0  283.37027E+02 0.107E+02 0.000E+00 0.618E+00 0.521E+00 0.710E+02 0.000E+00 0.461E-06 0.208E-01 0.566E+00 0.461E-09 0.461E-09 0.922E-09 0.140E-44
BIGSUB   1        0  284.37027E+02 0.150E+01 0.000E+00 0.529E+00 0.447E+00 0.717E+02 0.000E+00 0.461E-06 0.198E-01 0.562E+00 0.461E-09 0.461E-09 0.922E-09 0.140E-44
BIGSUB   1        0  285.37027E+02 0.000E+00 0.000E+00 0.178E+01 0.151E+01 0.702E+02 0.000E+00 0.461E-06 0.189E-01 0.556E+00 0.461E-09 0.461E-09 0.922E-09 0.140E-44
BIGSUB   1        0  286.37027E+02 0.000E+00 0.000E+00 0.185E+01 0.150E+01 0.687E+02 0.000E+00 0.461E-06 0.180E-01 0.550E+00 0.461E-09 0.461E-09 0.922E-09 0.140E-44
BIGSUB   1        0  287.37027E+02 0.117E+02 0.000E+00 0.761E+00 0.647E+00 0.768E+02 0.189E+00 0.461E-06 0.208E-01 0.574E+00 0.461E-09 0.461E-09 0.922E-09 0.140E-44
BIGSUB   1        0  288.37027E+02 0.000E+00 0.000E+00 0.271E+01 0.230E+01 0.745E+02 0.000E+00 0.461E-06 0.219E-01 0.570E+00 0.461E-09 0.461E-09 0.922E-09 0.140E-44
BIGSUB   1        0  289.37027E+02 0.000E+00 0.000E+00 0.230E+01 0.185E+01 0.727E+02 0.000E+00 0.461E-06 0.220E-01 0.565E+00 0.461E-09 0.461E-09 0.922E-09 0.140E-44
BIGSUB   1        0  290.37027E+02 0.000E+00 0.000E+00 0.224E+01 0.170E+01 0.710E+02 0.000E+00 0.461E-06 0.217E-01 0.559E+00 0.461E-09 0.461E-09 0.922E-09 0.140E-44
BIGSUB   1        0  291.37027E+02 0.000E+00 0.000E+00 0.291E+01 0.210E+01 0.689E+02 0.000E+00 0.461E-06 0.210E-01 0.553E+00 0.461E-09 0.461E-09 0.922E-09 0.140E-44
BIGSUB   1        0  292.37027E+02 0.280E+01 0.000E+00 0.100E+01 0.857E+00 0.707E+02 0.000E+00 0.461E-06 0.202E-01 0.549E+00 0.461E-09 0.461E-09 0.922E-09 0.140E-44
BIGSUB   1        0  293.37027E+02 0.000E+00 0.000E+00 0.156E+01 0.126E+01 0.694E+02 0.000E+00 0.461E-06 0.194E-01 0.543E+00 0.461E-09 0.461E-09 0.922E-09 0.140E-44
BIGSUB   1        0  294.37027E+02 0.100E+01 0.000E+00 0.286E+00 0.241E+00 0.702E+02 0.000E+00 0.461E-06 0.186E-01 0.537E+00 0.461E-09 0.461E-09 0.922E-09 0.140E-44
BIGSUB   1        0  295.37027E+02 0.000E+00 0.000E+00 0.104E+01 0.913E+00 0.693E+02 0.000E+00 0.461E-06 0.177E-01 0.531E+00 0.461E-09 0.461E-09 0.922E-09 0.140E-44
BIGSUB   1        0  296.37027E+02 0.000E+00 0.000E+00 0.270E+01 0.211E+01 0.672E+02 0.000E+00 0.461E-06 0.169E-01 0.526E+00 0.461E-09 0.461E-09 0.922E-09 0.140E-44
BIGSUB   1        0  297.37027E+02 0.000E+00 0.000E+00 0.241E+01 0.166E+01 0.655E+02 0.000E+00 0.461E-06 0.161E-01 0.520E+00 0.461E-09 0.461E-09 0.922E-09 0.140E-44
BIGSUB   1        0  298.37027E+02 0.000E+00 0.000E+00 0.174E+01 0.110E+01 0.644E+02 0.000E+00 0.461E-06 0.154E-01 0.514E+00 0.461E-09 0.461E-09 0.922E-09 0.140E-44
BIGSUB   1        0  299.37027E+02 0.000E+00 0.000E+00 0.297E+01 0.178E+01 0.626E+02 0.000E+00 0.461E-06 0.147E-01 0.509E+00 0.461E-09 0.461E-09 0.922E-09 0.140E-44
BIGSUB   1        0  300.37027E+02 0.000E+00 0.000E+00 0.200E+01 0.116E+01 0.615E+02 0.000E+00 0.461E-06 0.140E-01 0.503E+00 0.461E-09 0.461E-09 0.922E-09 0.140E-44
BIGSUB   1        0  301.37027E+02 0.530E+01 0.000E+00 0.737E+00 0.643E+00 0.657E+02 0.000E+00 0.461E-06 0.133E-01 0.501E+00 0.461E-09 0.461E-09 0.922E-09 0.140E-44
BIGSUB   1        0  302.37027E+02 0.000E+00 0.000E+00 0.154E+01 0.123E+01 0.645E+02 0.000E+00 0.461E-06 0.127E-01 0.496E+00 0.461E-09 0.461E-09 0.922E-09 0.140E-44
BIGSUB   1        0  303.37027E+02 0.000E+00 0.000E+00 0.155E+01 0.109E+01 0.634E+02 0.000E+00 0.461E-06 0.121E-01 0.491E+00 0.461E-09 0.461E-09 0.922E-09 0.140E-44
BIGSUB   1        0  304.37027E+02 0.000E+00 0.000E+00 0.118E+01 0.763E+00 0.627E+02 0.000E+00 0.461E-06 0.115E-01 0.486E+00 0.461E-09 0.461E-09 0.922E-09 0.140E-44
BIGSUB   1        0  305.37027E+02 0.000E+00 0.000E+00 0.170E+01 0.106E+01 0.616E+02 0.000E+00 0.461E-06 0.110E-01 0.481E+00 0.461E-09 0.461E-09 0.922E-09 0.140E-44
BIGSUB   1        0  306.37027E+02 0.000E+00 0.000E+00 0.238E+01 0.142E+01 0.602E+02 0.000E+00 0.461E-06 0.105E-01 0.475E+00 0.461E-09 0.461E-09 0.922E-09 0.140E-44
BIGSUB   1        0  307.37027E+02 0.000E+00 0.000E+00 0.171E+01 0.952E+00 0.592E+02 0.000E+00 0.461E-06 0.997E-02 0.470E+00 0.461E-09 0.461E-09 0.922E-09 0.140E-44
BIGSUB   1        0  308.37027E+02 0.000E+00 0.000E+00 0.391E+00 0.215E+00 0.590E+02 0.000E+00 0.461E-06 0.950E-02 0.466E+00 0.461E-09 0.461E-09 0.922E-09 0.140E-44
BIGSUB   1        0  309.37027E+02 0.000E+00 0.000E+00 0.140E+01 0.759E+00 0.583E+02 0.000E+00 0.461E-06 0.905E-02 0.461E+00 0.461E-09 0.461E-09 0.922E-09 0.140E-44
BIGSUB   1        0  310.37027E+02 0.000E+00 0.000E+00 0.110E+01 0.593E+00 0.577E+02 0.000E+00 0.461E-06 0.863E-02 0.456E+00 0.461E-09 0.461E-09 0.922E-09 0.140E-44
BIGSUB   1        0  311.37027E+02 0.560E+01 0.000E+00 0.000E+00 0.000E+00 0.577E+02 0.000E+00 0.461E-06 0.822E-02 0.451E+00 0.461E-09 0.461E-09 0.922E-09 0.140E-44
BIGSUB   1        0  312.37027E+02 0.000E+00 0.000E+00 0.105E+01 0.525E+00 0.577E+02 0.000E+00 0.461E-06 0.783E-02 0.446E+00 0.461E-09 0.461E-09 0.922E-09 0.140E-44
BIGSUB   1        0  313.37027E+02 0.000E+00 0.000E+00 0.713E+00 0.356E+00 0.577E+02 0.000E+00 0.461E-06 0.746E-02 0.442E+00 0.461E-09 0.461E-09 0.922E-09 0.140E-44
BIGSUB   1        0  314.37027E+02 0.280E+01 0.000E+00 0.000E+00 0.000E+00 0.577E+02 0.000E+00 0.461E-06 0.711E-02 0.437E+00 0.461E-09 0.461E-09 0.922E-09 0.140E-44
BIGSUB   1        0  315.37027E+02 0.970E+01 0.752E+01 0.694E+00 0.526E+00 0.724E+02 0.000E+00 0.461E-06 0.678E-02 0.452E+00 0.461E-09 0.461E-09 0.922E-09 0.140E-44
BIGSUB   1        0  316.37027E+02 0.000E+00 0.000E+00 0.158E+01 0.119E+01 0.712E+02 0.000E+00 0.461E-06 0.646E-02 0.448E+00 0.461E-09 0.461E-09 0.922E-09 0.140E-44
BIGSUB   1        0  317.37027E+02 0.000E+00 0.000E+00 0.247E+01 0.177E+01 0.694E+02 0.000E+00 0.461E-06 0.615E-02 0.443E+00 0.461E-09 0.461E-09 0.922E-09 0.140E-44
BIGSUB   1        0  318.37027E+02 0.000E+00 0.000E+00 0.116E+01 0.747E+00 0.686E+02 0.000E+00 0.461E-06 0.586E-02 0.438E+00 0.461E-09 0.461E-09 0.922E-09 0.140E-44
BIGSUB   1        0  319.37027E+02 0.000E+00 0.000E+00 0.140E+01 0.875E+00 0.678E+02 0.000E+00 0.461E-06 0.559E-02 0.434E+00 0.461E-09 0.461E-09 0.922E-09 0.140E-44
BIGSUB   1        0  320.37027E+02 0.800E+00 0.000E+00 0.130E+00 0.651E-01 0.678E+02 0.000E+00 0.461E-06 0.532E-02 0.430E+00 0.461E-09 0.461E-09 0.922E-09 0.140E-44
BIGSUB   1        0  321.37027E+02 0.000E+00 0.000E+00 0.449E+00 0.225E+00 0.678E+02 0.000E+00 0.461E-06 0.507E-02 0.425E+00 0.461E-09 0.461E-09 0.922E-09 0.140E-44
BIGSUB   1        0  322.37027E+02 0.000E+00 0.000E+00 0.170E+00 0.850E-01 0.678E+02 0.000E+00 0.461E-06 0.483E-02 0.421E+00 0.461E-09 0.461E-09 0.922E-09 0.140E-44
BIGSUB   1        0  323.37027E+02 0.000E+00 0.000E+00 0.877E+00 0.614E+00 0.676E+02 0.000E+00 0.461E-06 0.460E-02 0.417E+00 0.461E-09 0.461E-09 0.922E-09 0.140E-44
BIGSUB   1        0  324.37027E+02 0.140E+02 0.000E+00 0.503E+00 0.390E+00 0.776E+02 0.106E+01 0.461E-06 0.247E-01 0.457E+00 0.461E-09 0.461E-09 0.922E-09 0.140E-44
BIGSUB   1        0  325.37027E+02 0.000E+00 0.000E+00 0.283E+01 0.220E+01 0.754E+02 0.000E+00 0.461E-06 0.352E-01 0.464E+00 0.461E-09 0.461E-09 0.922E-09 0.140E-44
BIGSUB   1        0  326.37027E+02 0.000E+00 0.000E+00 0.149E+01 0.106E+01 0.743E+02 0.000E+00 0.461E-06 0.402E-01 0.465E+00 0.461E-09 0.461E-09 0.922E-09 0.140E-44
BIGSUB   1        0  327.37027E+02 0.000E+00 0.000E+00 0.667E+00 0.460E+00 0.739E+02 0.000E+00 0.461E-06 0.421E-01 0.462E+00 0.461E-09 0.461E-09 0.922E-09 0.140E-44
BIGSUB   1        0  328.37027E+02 0.000E+00 0.000E+00 0.476E+00 0.323E+00 0.735E+02 0.000E+00 0.461E-06 0.423E-01 0.458E+00 0.461E-09 0.461E-09 0.922E-09 0.140E-44
BIGSUB   1        0  329.37027E+02 0.000E+00 0.000E+00 0.193E+01 0.130E+01 0.722E+02 0.000E+00 0.461E-06 0.415E-01 0.454E+00 0.461E-09 0.461E-09 0.922E-09 0.140E-44
BIGSUB   1        0  330.37027E+02 0.117E+02 0.000E+00 0.819E-01 0.644E-01 0.802E+02 0.152E+01 0.461E-06 0.695E-01 0.499E+00 0.461E-09 0.461E-09 0.922E-09 0.140E-44
BIGSUB   1        0  331.37027E+02 0.280E+01 0.000E+00 0.572E-01 0.450E-01 0.813E+02 0.732E+00 0.461E-06 0.974E-01 0.531E+00 0.461E-09 0.461E-09 0.922E-09 0.140E-44
BIGSUB   1        0  332.37027E+02 0.000E+00 0.000E+00 0.173E+01 0.136E+01 0.799E+02 0.000E+00 0.461E-06 0.111E+00 0.540E+00 0.461E-09 0.461E-09 0.922E-09 0.140E-44
BIGSUB   1        0  333.37027E+02 0.000E+00 0.000E+00 0.217E+01 0.166E+01 0.783E+02 0.000E+00 0.461E-06 0.116E+00 0.541E+00 0.461E-09 0.461E-09 0.922E-09 0.140E-44
BIGSUB   1        0  334.37027E+02 0.000E+00 0.000E+00 0.149E+01 0.109E+01 0.772E+02 0.000E+00 0.461E-06 0.116E+00 0.537E+00 0.461E-09 0.461E-09 0.922E-09 0.140E-44
BIGSUB   1        0  335.37027E+02 0.300E+01 0.000E+00 0.661E-02 0.525E-02 0.800E+02 0.000E+00 0.461E-06 0.114E+00 0.533E+00 0.461E-09 0.461E-09 0.922E-09 0.140E-44
BIGSUB   1        0  336.37027E+02 0.000E+00 0.000E+00 0.893E+00 0.711E+00 0.793E+02 0.000E+00 0.461E-06 0.110E+00 0.525E+00 0.461E-09 0.461E-09 0.922E-09 0.140E-44
BIGSUB   1        0  337.37027E+02 0.000E+00 0.000E+00 0.109E+01 0.850E+00 0.784E+02 0.000E+00 0.461E-06 0.106E+00 0.517E+00 0.461E-09 0.461E-09 0.922E-09 0.140E-44
BIGSUB   1        0  338.37027E+02 0.000E+00 0.000E+00 0.879E+00 0.667E+00 0.778E+02 0.000E+00 0.461E-06 0.102E+00 0.509E+00 0.461E-09 0.461E-09 0.922E-09 0.140E-44
BIGSUB   1        0  339.37027E+02 0.100E+01 0.000E+00 0.000E+00 0.000E+00 0.787E+02 0.000E+00 0.461E-06 0.973E-01 0.501E+00 0.461E-09 0.461E-09 0.922E-09 0.140E-44
BIGSUB   1        0  340.37027E+02 0.000E+00 0.000E+00 0.121E+01 0.971E+00 0.778E+02 0.000E+00 0.461E-06 0.930E-01 0.492E+00 0.461E-09 0.461E-09 0.922E-09 0.140E-44
BIGSUB   1        0  341.37027E+02 0.000E+00 0.000E+00 0.371E+01 0.283E+01 0.749E+02 0.000E+00 0.461E-06 0.887E-01 0.484E+00 0.461E-09 0.461E-09 0.922E-09 0.140E-44
BIGSUB   1        0  342.37027E+02 0.840E+01 0.000E+00 0.663E+00 0.535E+00 0.809E+02 0.784E+00 0.461E-06 0.996E-01 0.503E+00 0.461E-09 0.461E-09 0.922E-09 0.140E-44
BIGSUB   1        0  343.37027E+02 0.000E+00 0.000E+00 0.697E+00 0.562E+00 0.803E+02 0.000E+00 0.461E-06 0.104E+00 0.503E+00 0.461E-09 0.461E-09 0.922E-09 0.140E-44
BIGSUB   1        0  344.37027E+02 0.000E+00 0.000E+00 0.872E+00 0.695E+00 0.796E+02 0.000E+00 0.461E-06 0.104E+00 0.499E+00 0.461E-09 0.461E-09 0.922E-09 0.140E-44
BIGSUB   1        0  345.37027E+02 0.500E+00 0.000E+00 0.000E+00 0.000E+00 0.796E+02 0.000E+00 0.461E-06 0.102E+00 0.493E+00 0.461E-09 0.461E-09 0.922E-09 0.140E-44
BIGSUB   1        0  346.37027E+02 0.000E+00 0.000E+00 0.591E+00 0.287E+00 0.793E+02 0.000E+00 0.461E-06 0.984E-01 0.486E+00 0.461E-09 0.461E-09 0.922E-09 0.140E-44
BIGSUB   1        0  347.37027E+02 0.000E+00 0.000E+00 0.915E+00 0.442E+00 0.789E+02 0.000E+00 0.461E-06 0.947E-01 0.479E+00 0.461E-09 0.461E-09 0.922E-09 0.140E-44
BIGSUB   1        0  348.37027E+02 0.000E+00 0.000E+00 0.149E+01 0.709E+00 0.782E+02 0.000E+00 0.461E-06 0.907E-01 0.471E+00 0.461E-09 0.461E-09 0.922E-09 0.140E-44
BIGSUB   1        0  349.37027E+02 0.000E+00 0.000E+00 0.987E+00 0.463E+00 0.777E+02 0.000E+00 0.461E-06 0.868E-01 0.463E+00 0.461E-09 0.461E-09 0.922E-09 0.140E-44
BIGSUB   1        0  350.37027E+02 0.000E+00 0.000E+00 0.759E+00 0.353E+00 0.773E+02 0.000E+00 0.461E-06 0.828E-01 0.456E+00 0.461E-09 0.461E-09 0.922E-09 0.140E-44
BIGSUB   1        0  351.37027E+02 0.200E+01 0.000E+00 0.000E+00 0.000E+00 0.773E+02 0.000E+00 0.461E-06 0.790E-01 0.448E+00 0.461E-09 0.461E-09 0.922E-09 0.140E-44
BIGSUB   1        0  352.37027E+02 0.230E+01 0.000E+00 0.381E+00 0.176E+00 0.772E+02 0.000E+00 0.461E-06 0.754E-01 0.441E+00 0.461E-09 0.461E-09 0.922E-09 0.140E-44
BIGSUB   1        0  353.37027E+02 0.000E+00 0.000E+00 0.401E+00 0.185E+00 0.770E+02 0.000E+00 0.461E-06 0.718E-01 0.434E+00 0.461E-09 0.461E-09 0.922E-09 0.140E-44
BIGSUB   1        0  354.37027E+02 0.000E+00 0.000E+00 0.757E+00 0.379E+00 0.770E+02 0.000E+00 0.461E-06 0.685E-01 0.427E+00 0.461E-09 0.461E-09 0.922E-09 0.140E-44
BIGSUB   1        0  355.37027E+02 0.300E+01 0.000E+00 0.000E+00 0.000E+00 0.770E+02 0.000E+00 0.461E-06 0.652E-01 0.421E+00 0.461E-09 0.461E-09 0.922E-09 0.140E-44
BIGSUB   1        0  356.37027E+02 0.150E+02 0.742E+01 0.388E+00 0.318E+00 0.936E+02 0.150E+01 0.137E+01 0.916E-01 0.183E+01 0.127E-01 0.675E-02 0.404E-01 0.140E-44
BIGSUB   1        0  357.37027E+02 0.000E+00 0.000E+00 0.229E+00 0.187E+00 0.934E+02 0.000E+00 0.727E+00 0.104E+00 0.119E+01 0.492E-02 0.289E-02 0.155E-01 0.140E-44
BIGSUB   1        0  358.37027E+02 0.000E+00 0.000E+00 0.424E+00 0.347E+00 0.930E+02 0.000E+00 0.399E+00 0.109E+00 0.862E+00 0.198E-02 0.132E-02 0.609E-02 0.140E-44
BIGSUB   1        0  359.37027E+02 0.000E+00 0.000E+00 0.105E+01 0.859E+00 0.922E+02 0.000E+00 0.229E+00 0.109E+00 0.688E+00 0.817E-03 0.640E-03 0.244E-02 0.140E-44
BIGSUB   1        0  360.37027E+02 0.000E+00 0.000E+00 0.949E+00 0.776E+00 0.914E+02 0.000E+00 0.135E+00 0.107E+00 0.589E+00 0.349E-03 0.329E-03 0.998E-03 0.140E-44
BIGSUB   1        0  361.37027E+02 0.000E+00 0.000E+00 0.846E+00 0.691E+00 0.907E+02 0.000E+00 0.818E-01 0.104E+00 0.529E+00 0.154E-03 0.178E-03 0.416E-03 0.140E-44
BIGSUB   1        0  362.37027E+02 0.000E+00 0.000E+00 0.535E+00 0.436E+00 0.903E+02 0.000E+00 0.503E-01 0.100E+00 0.490E+00 0.714E-04 0.100E-03 0.177E-03 0.140E-44
BIGSUB   1        0  363.37027E+02 0.180E+01 0.000E+00 0.309E+00 0.154E+00 0.901E+02 0.000E+00 0.313E-01 0.959E-01 0.464E+00 0.347E-04 0.586E-04 0.778E-04 0.140E-44
BIGSUB   1        0  364.37027E+02 0.230E+01 0.000E+00 0.000E+00 0.000E+00 0.901E+02 0.000E+00 0.197E-01 0.917E-01 0.445E+00 0.178E-04 0.352E-04 0.354E-04 0.140E-44
BIGSUB   1        0  365.37027E+02 0.000E+00 0.000E+00 0.000E+00 0.000E+00 0.901E+02 0.000E+00 0.125E-01 0.876E-01 0.430E+00 0.958E-05 0.216E-04 0.169E-04 0.140E-44
BIGSUB   1        0    1.37027E+02 0.200E+01 0.000E+00 0.173E-01 0.858E-02 0.901E+02 0.000E+00 0.798E-02 0.836E-01 0.419E+00 0.542E-05 0.135E-04 0.846E-05 0.140E-44
BIGSUB   1        0    2.37027E+02 0.000E+00 0.000E+00 0.144E+00 0.717E-01 0.901E+02 0.000E+00 0.513E-02 0.797E-01 0.409E+00 0.319E-05 0.850E-05 0.446E-05 0.140E-44
BIGSUB   1        0    3.37027E+02 0.132E+02 0.000E+00 0.000E+00 0.000E+00 0.901E+02 0.000E+00 0.331E-02 0.760E-01 0.400E+00 0.194E-05 0.541E-05 0.247E-05 0.140E-44
BIGSUB   1        0    4.37027E+02 0.000E+00 0.000E+00 0.894E+00 0.444E+00 0.896E+02 0.000E+00 0.215E-02 0.724E-01 0.392E+00 0.120E-05 0.347E-05 0.143E-05 0.140E-44
BIGSUB   1        0    5.37027E+02 0.000E+00 0.000E+00 0.239E+00 0.119E+00 0.895E+02 0.000E+00 0.140E-02 0.690E-01 0.385E+00 0.761E-06 0.224E-05 0.856E-06 0.140E-44
BIGSUB   1        0    6.37027E+02 0.100E+01 0.000E+00 0.000E+00 0.000E+00 0.895E+02 0.000E+00 0.912E-03 0.658E-01 0.378E+00 0.487E-06 0.145E-05 0.527E-06 0.140E-44
BIGSUB   1        0    7.37027E+02 0.000E+00 0.000E+00 0.523E+00 0.259E+00 0.892E+02 0.000E+00 0.597E-03 0.627E-01 0.372E+00 0.315E-06 0.941E-06 0.331E-06 0.140E-44
BIGSUB   1        0    8.37027E+02 0.230E+01 0.000E+00 0.000E+00 0.000E+00 0.892E+02 0.000E+00 0.391E-03 0.597E-01 0.366E+00 0.205E-06 0.614E-06 0.211E-06 0.140E-44
BIGSUB   1        0    9.37027E+02 0.234E+02 0.000E+00 0.996E-01 0.493E-01 0.892E+02 0.000E+00 0.257E-03 0.569E-01 0.360E+00 0.134E-06 0.401E-06 0.136E-06 0.140E-44
BIGSUB   1        0   10.37027E+02 0.000E+00 0.000E+00 0.235E+00 0.116E+00 0.891E+02 0.000E+00 0.169E-03 0.542E-01 0.354E+00 0.877E-07 0.263E-06 0.883E-07 0.140E-44
BIGSUB   1        0   11.37027E+02 0.660E+01 0.000E+00 0.000E+00 0.000E+00 0.891E+02 0.000E+00 0.112E-03 0.517E-01 0.349E+00 0.577E-07 0.173E-06 0.577E-07 0.140E-44
BIGSUB   1        0   12.37027E+02 0.330E+01 0.000E+00 0.600E-01 0.297E-01 0.890E+02 0.000E+00 0.738E-04 0.492E-01 0.343E+00 0.381E-07 0.114E-06 0.380E-07 0.140E-44
BIGSUB   1        0   13.37027E+02 0.410E+01 0.000E+00 0.000E+00 0.000E+00 0.890E+02 0.000E+00 0.488E-04 0.469E-01 0.338E+00 0.252E-07 0.749E-07 0.251E-07 0.140E-44
BIGSUB   1        0   14.37027E+02 0.107E+02 0.000E+00 0.587E+00 0.291E+00 0.887E+02 0.000E+00 0.324E-04 0.447E-01 0.333E+00 0.168E-07 0.495E-07 0.167E-07 0.140E-44
BIGSUB   1        0   15.37027E+02 0.213E+02 0.000E+00 0.198E+00 0.982E-01 0.886E+02 0.000E+00 0.215E-04 0.426E-01 0.328E+00 0.112E-07 0.328E-07 0.112E-07 0.140E-44
BIGSUB   1        0   16.37027E+02 0.000E+00 0.000E+00 0.000E+00 0.000E+00 0.886E+02 0.000E+00 0.144E-04 0.406E-01 0.323E+00 0.751E-08 0.218E-07 0.761E-08 0.140E-44
BIGSUB   1        0   17.37027E+02 0.000E+00 0.000E+00 0.412E+00 0.204E+00 0.884E+02 0.000E+00 0.962E-05 0.387E-01 0.319E+00 0.508E-08 0.145E-07 0.523E-08 0.140E-44
BIGSUB   1        0   18.37027E+02 0.216E+02 0.000E+00 0.000E+00 0.000E+00 0.884E+02 0.000E+00 0.648E-05 0.368E-01 0.314E+00 0.347E-08 0.970E-08 0.367E-08 0.140E-44
BIGSUB   1        0   19.37027E+02 0.000E+00 0.154E+02 0.144E+00 0.720E-01 0.101E+03 0.000E+00 0.122E+01 0.356E-01 0.153E+01 0.113E-01 0.526E-02 0.353E-01 0.140E-44
BIGSUB   1        0   20.37027E+02 0.000E+00 0.000E+00 0.485E+00 0.243E+00 0.101E+03 0.000E+00 0.649E+00 0.343E-01 0.955E+00 0.435E-02 0.231E-02 0.134E-01 0.140E-44
BIGSUB   1        0   21.37027E+02 0.000E+00 0.000E+00 0.497E+00 0.248E+00 0.101E+03 0.000E+00 0.358E+00 0.328E-01 0.660E+00 0.175E-02 0.108E-02 0.526E-02 0.140E-44
BIGSUB   1        0   22.37027E+02 0.000E+00 0.000E+00 0.000E+00 0.000E+00 0.101E+03 0.000E+00 0.205E+00 0.314E-01 0.503E+00 0.734E-03 0.540E-03 0.212E-02 0.140E-44
BIGSUB   1        0   23.37027E+02 0.000E+00 0.124E+02 0.167E-01 0.836E-02 0.109E+03 0.000E+00 0.180E+01 0.307E-01 0.209E+01 0.101E-01 0.625E-02 0.302E-01 0.140E-44
BIGSUB   1        0   24.37027E+02 0.170E+02 0.281E+02 0.000E+00 0.000E+00 0.115E+03 0.445E+01 0.162E+02 0.116E+00 0.166E+02 0.105E+00 0.461E-01 0.295E+00 0.140E-44
BIGSUB   1        0   25.37027E+02 0.130E+01 0.229E+02 0.000E+00 0.000E+00 0.115E+03 0.589E+01 0.163E+02 0.274E+00 0.169E+02 0.101E+00 0.428E-01 0.273E+00 0.140E-44
BIGSUB   1        0   26.37027E+02 0.000E+00 0.000E+00 0.686E+00 0.343E+00 0.114E+03 0.922E-04 0.855E+01 0.354E+00 0.918E+01 0.417E-01 0.199E-01 0.107E+00 0.140E-44
BIGSUB   1        0   27.37027E+02 0.800E+00 0.000E+00 0.000E+00 0.000E+00 0.114E+03 0.000E+00 0.480E+01 0.391E+00 0.547E+01 0.185E-01 0.101E-01 0.445E-01 0.140E-44
BIGSUB   1        0   28.37027E+02 0.150E+01 0.000E+00 0.000E+00 0.000E+00 0.114E+03 0.000E+00 0.281E+01 0.403E+00 0.349E+01 0.870E-02 0.538E-02 0.192E-01 0.140E-44
BIGSUB   1        0   29.37027E+02 0.230E+01 0.000E+00 0.670E+00 0.335E+00 0.114E+03 0.000E+00 0.169E+01 0.401E+00 0.237E+01 0.436E-02 0.302E-02 0.870E-02 0.140E-44
BIGSUB   1        0   30.37027E+02 0.460E+01 0.000E+00 0.000E+00 0.000E+00 0.114E+03 0.000E+00 0.104E+01 0.392E+00 0.170E+01 0.231E-02 0.176E-02 0.414E-02 0.140E-44
BIGSUB   1        0   31.37027E+02 0.000E+00 0.000E+00 0.316E+00 0.158E+00 0.114E+03 0.000E+00 0.652E+00 0.379E+00 0.130E+01 0.129E-02 0.105E-02 0.208E-02 0.140E-44
BIGSUB   1        0   32.37027E+02 0.000E+00 0.000E+00 0.531E+00 0.266E+00 0.114E+03 0.000E+00 0.412E+00 0.365E+00 0.104E+01 0.754E-03 0.645E-03 0.110E-02 0.140E-44
BIGSUB   1        0   33.37027E+02 0.710E+01 0.000E+00 0.532E+00 0.266E+00 0.113E+03 0.000E+00 0.263E+00 0.349E+00 0.874E+00 0.456E-03 0.401E-03 0.617E-03 0.140E-44
BIGSUB   1        0   34.37027E+02 0.000E+00 0.117E+02 0.155E+01 0.776E+00 0.119E+03 0.546E+00 0.286E+01 0.345E+00 0.347E+01 0.147E-01 0.767E-02 0.392E-01 0.140E-44
BIGSUB   1        0   35.37027E+02 0.000E+00 0.000E+00 0.845E+00 0.423E+00 0.119E+03 0.209E-04 0.145E+01 0.336E+00 0.204E+01 0.580E-02 0.344E-02 0.150E-01 0.140E-44
BIGSUB   1        0   36.37027E+02 0.130E+01 0.000E+00 0.441E+00 0.220E+00 0.119E+03 0.926E-07 0.792E+00 0.324E+00 0.137E+01 0.253E-02 0.169E-02 0.612E-02 0.140E-44
BIGSUB   1        0   37.37027E+02 0.000E+00 0.000E+00 0.661E+00 0.331E+00 0.118E+03 0.000E+00 0.455E+00 0.311E+00 0.102E+01 0.118E-02 0.888E-03 0.263E-02 0.140E-44
BIGSUB   1        0   38.37027E+02 0.200E+01 0.000E+00 0.000E+00 0.000E+00 0.118E+03 0.813E-01 0.270E+00 0.299E+00 0.819E+00 0.583E-03 0.489E-03 0.119E-02 0.140E-44
BIGSUB   1        0   39.37027E+02 0.510E+01 0.000E+00 0.000E+00 0.000E+00 0.118E+03 0.105E-04 0.164E+00 0.287E+00 0.698E+00 0.305E-03 0.280E-03 0.560E-03 0.140E-44
BIGSUB   1        0   40.37027E+02 0.000E+00 0.000E+00 0.559E+00 0.280E+00 0.118E+03 0.000E+00 0.101E+00 0.274E+00 0.621E+00 0.169E-03 0.165E-03 0.279E-03 0.140E-44
BIGSUB   1        0   41.37027E+02 0.000E+00 0.000E+00 0.709E+00 0.354E+00 0.118E+03 0.000E+00 0.635E-01 0.262E+00 0.568E+00 0.975E-04 0.996E-04 0.147E-03 0.140E-44
BIGSUB   1        0   42.37027E+02 0.000E+00 0.000E+00 0.413E+00 0.206E+00 0.118E+03 0.000E+00 0.403E-01 0.250E+00 0.531E+00 0.584E-04 0.613E-04 0.811E-04 0.140E-44
BIGSUB   1        0   43.37027E+02 0.510E+01 0.190E+02 0.000E+00 0.000E+00 0.122E+03 0.796E+00 0.846E+01 0.254E+00 0.896E+01 0.478E-01 0.223E-01 0.125E+00 0.140E-44
BIGSUB   1        0   44.37027E+02 0.740E+01 0.253E+02 0.000E+00 0.000E+00 0.120E+03 0.653E+01 0.171E+02 0.377E+00 0.178E+02 0.107E+00 0.435E-01 0.277E+00 0.140E-44
BIGSUB   1        0   45.37027E+02 0.000E+00 0.000E+00 0.278E+00 0.139E+00 0.120E+03 0.174E-03 0.870E+01 0.437E+00 0.938E+01 0.429E-01 0.199E-01 0.107E+00 0.140E-44
BIGSUB   1        0   46.37027E+02 0.000E+00 0.000E+00 0.406E+00 0.203E+00 0.120E+03 0.383E-06 0.479E+01 0.460E+00 0.549E+01 0.188E-01 0.995E-02 0.439E-01 0.140E-44
BIGSUB   1        0   47.37027E+02 0.000E+00 0.000E+00 0.000E+00 0.000E+00 0.120E+03 0.000E+00 0.277E+01 0.464E+00 0.347E+01 0.875E-02 0.529E-02 0.189E-01 0.140E-44
BIGSUB   1        0   48.37027E+02 0.000E+00 0.000E+00 0.107E+01 0.537E+00 0.120E+03 0.000E+00 0.165E+01 0.456E+00 0.234E+01 0.434E-02 0.295E-02 0.850E-02 0.140E-44
BIGSUB   1        0   49.37027E+02 0.000E+00 0.000E+00 0.650E+00 0.325E+00 0.120E+03 0.000E+00 0.101E+01 0.443E+00 0.169E+01 0.228E-02 0.171E-02 0.402E-02 0.140E-44
BIGSUB   1        0   50.37027E+02 0.000E+00 0.000E+00 0.152E+01 0.761E+00 0.119E+03 0.000E+00 0.628E+00 0.427E+00 0.129E+01 0.126E-02 0.102E-02 0.201E-02 0.140E-44
BIGSUB   1        0   51.37027E+02 0.000E+00 0.000E+00 0.374E+00 0.187E+00 0.119E+03 0.000E+00 0.396E+00 0.409E+00 0.104E+01 0.729E-03 0.624E-03 0.106E-02 0.140E-44
BIGSUB   1        0   52.37027E+02 0.150E+01 0.000E+00 0.000E+00 0.000E+00 0.119E+03 0.000E+00 0.253E+00 0.392E+00 0.871E+00 0.438E-03 0.388E-03 0.593E-03 0.140E-44
BIGSUB   1        0   53.37027E+02 0.000E+00 0.000E+00 0.792E+00 0.396E+00 0.118E+03 0.000E+00 0.162E+00 0.374E+00 0.761E+00 0.271E-03 0.244E-03 0.345E-03 0.140E-44
BIGSUB   1        0   54.37027E+02 0.000E+00 0.000E+00 0.368E+00 0.184E+00 0.118E+03 0.000E+00 0.105E+00 0.357E+00 0.685E+00 0.171E-03 0.155E-03 0.209E-03 0.140E-44
BIGSUB   1        0   55.37027E+02 0.000E+00 0.000E+00 0.384E+00 0.192E+00 0.118E+03 0.000E+00 0.681E-01 0.340E+00 0.629E+00 0.109E-03 0.992E-04 0.129E-03 0.140E-44
BIGSUB   1        0   56.37027E+02 0.000E+00 0.000E+00 0.232E+00 0.116E+00 0.118E+03 0.000E+00 0.444E-01 0.325E+00 0.587E+00 0.706E-04 0.639E-04 0.820E-04 0.140E-44
BIGSUB   1        0   57.37027E+02 0.000E+00 0.000E+00 0.962E+00 0.481E+00 0.117E+03 0.000E+00 0.290E-01 0.309E+00 0.555E+00 0.460E-04 0.414E-04 0.526E-04 0.140E-44
BIGSUB   1        0   58.37027E+02 0.000E+00 0.000E+00 0.288E+00 0.144E+00 0.117E+03 0.000E+00 0.190E-01 0.295E+00 0.528E+00 0.301E-04 0.269E-04 0.341E-04 0.140E-44
BIGSUB   1        0   59.37027E+02 0.480E+01 0.000E+00 0.717E-01 0.359E-01 0.117E+03 0.000E+00 0.125E-01 0.281E+00 0.506E+00 0.198E-04 0.175E-04 0.223E-04 0.140E-44
BIGSUB   1        0   60.37027E+02 0.180E+02 0.000E+00 0.116E+00 0.579E-01 0.117E+03 0.000E+00 0.823E-02 0.268E+00 0.486E+00 0.130E-04 0.115E-04 0.146E-04 0.140E-44
BIGSUB   1        0   61.37027E+02 0.100E+01 0.000E+00 0.253E-01 0.126E-01 0.117E+03 0.000E+00 0.543E-02 0.255E+00 0.469E+00 0.861E-05 0.751E-05 0.962E-05 0.140E-44
BIGSUB   1        0   62.37027E+02 0.130E+01 0.000E+00 0.300E+00 0.150E+00 0.117E+03 0.000E+00 0.358E-02 0.243E+00 0.453E+00 0.570E-05 0.493E-05 0.635E-05 0.140E-44
BIGSUB   1        0   63.37027E+02 0.000E+00 0.170E+02 0.860E+00 0.430E+00 0.120E+03 0.258E+01 0.522E+01 0.282E+00 0.571E+01 0.215E-01 0.133E-01 0.545E-01 0.140E-44
BIGSUB   1        0   64.37027E+02 0.000E+00 0.000E+00 0.129E+01 0.645E+00 0.119E+03 0.316E-04 0.255E+01 0.297E+00 0.305E+01 0.857E-02 0.589E-02 0.210E-01 0.140E-44
BIGSUB   1        0   65.37027E+02 0.208E+02 0.000E+00 0.000E+00 0.000E+00 0.119E+03 0.000E+00 0.136E+01 0.300E+00 0.187E+01 0.376E-02 0.287E-02 0.864E-02 0.140E-44
BIGSUB   1        0   66.37027E+02 0.710E+01 0.000E+00 0.000E+00 0.000E+00 0.119E+03 0.000E+00 0.772E+00 0.295E+00 0.127E+01 0.177E-02 0.149E-02 0.375E-02 0.140E-44
BIGSUB   1        0   67.37027E+02 0.000E+00 0.000E+00 0.643E+00 0.322E+00 0.119E+03 0.000E+00 0.453E+00 0.286E+00 0.939E+00 0.887E-03 0.819E-03 0.171E-02 0.140E-44
BIGSUB   1        0   68.37027E+02 0.000E+00 0.000E+00 0.879E+00 0.439E+00 0.119E+03 0.000E+00 0.274E+00 0.276E+00 0.747E+00 0.469E-03 0.467E-03 0.820E-03 0.140E-44
BIGSUB   1        0   69.37027E+02 0.000E+00 0.000E+00 0.712E+00 0.356E+00 0.118E+03 0.000E+00 0.169E+00 0.265E+00 0.628E+00 0.261E-03 0.275E-03 0.415E-03 0.140E-44
BIGSUB   1        0   70.37027E+02 0.000E+00 0.000E+00 0.470E+00 0.235E+00 0.118E+03 0.000E+00 0.106E+00 0.253E+00 0.552E+00 0.152E-03 0.166E-03 0.222E-03 0.140E-44
BIGSUB   1        0   71.37027E+02 0.530E+01 0.000E+00 0.000E+00 0.000E+00 0.118E+03 0.000E+00 0.668E-01 0.242E+00 0.500E+00 0.917E-04 0.102E-03 0.125E-03 0.140E-44
BIGSUB   1        0   72.37027E+02 0.000E+00 0.000E+00 0.146E+01 0.730E+00 0.117E+03 0.000E+00 0.427E-01 0.231E+00 0.463E+00 0.568E-04 0.636E-04 0.730E-04 0.140E-44
BIGSUB   1        0   73.37027E+02 0.000E+00 0.000E+00 0.719E+00 0.359E+00 0.117E+03 0.000E+00 0.275E-01 0.220E+00 0.435E+00 0.359E-04 0.401E-04 0.443E-04 0.140E-44
BIGSUB   1        0   74.37027E+02 0.250E+01 0.000E+00 0.177E+00 0.883E-01 0.117E+03 0.000E+00 0.178E-01 0.210E+00 0.413E+00 0.230E-04 0.255E-04 0.276E-04 0.140E-44
BIGSUB   1        0   75.37027E+02 0.000E+00 0.000E+00 0.580E+00 0.290E+00 0.117E+03 0.000E+00 0.115E-01 0.200E+00 0.395E+00 0.149E-04 0.163E-04 0.175E-04 0.140E-44
BIGSUB   1        0   76.37027E+02 0.000E+00 0.000E+00 0.159E+01 0.796E+00 0.117E+03 0.000E+00 0.752E-02 0.191E+00 0.380E+00 0.968E-05 0.105E-04 0.112E-04 0.140E-44
BIGSUB   1        0   77.37027E+02 0.000E+00 0.264E+02 0.153E+01 0.766E+00 0.120E+03 0.306E+01 0.919E+01 0.241E+00 0.962E+01 0.451E-01 0.236E-01 0.115E+00 0.140E-44
BIGSUB   1        0   78.37027E+02 0.150E+01 0.175E+02 0.965E+00 0.792E+00 0.114E+03 0.837E+01 0.109E+02 0.425E+00 0.115E+02 0.455E-01 0.268E-01 0.113E+00 0.140E-44
BIGSUB   1        0   79.37027E+02 0.000E+00 0.000E+00 0.132E+01 0.109E+01 0.113E+03 0.121E-03 0.555E+01 0.517E+00 0.627E+01 0.192E-01 0.124E-01 0.451E-01 0.140E-44
BIGSUB   1        0   80.37027E+02 0.200E+01 0.000E+00 0.000E+00 0.000E+00 0.113E+03 0.358E-06 0.306E+01 0.557E+00 0.381E+01 0.878E-02 0.625E-02 0.192E-01 0.140E-44
BIGSUB   1        0   81.37027E+02 0.437E+02 0.000E+00 0.000E+00 0.000E+00 0.113E+03 0.000E+00 0.177E+01 0.567E+00 0.253E+01 0.429E-02 0.334E-02 0.855E-02 0.140E-44
BIGSUB   1        0   82.37027E+02 0.000E+00 0.000E+00 0.157E+01 0.788E+00 0.112E+03 0.000E+00 0.105E+01 0.561E+00 0.181E+01 0.222E-02 0.187E-02 0.401E-02 0.140E-44
BIGSUB   1        0   83.37027E+02 0.000E+00 0.000E+00 0.102E+01 0.512E+00 0.112E+03 0.000E+00 0.643E+00 0.546E+00 0.138E+01 0.122E-02 0.109E-02 0.199E-02 0.140E-44
BIGSUB   1        0   84.37027E+02 0.000E+00 0.172E+02 0.145E+01 0.727E+00 0.115E+03 0.355E+01 0.494E+01 0.596E+00 0.573E+01 0.191E-01 0.131E-01 0.495E-01 0.140E-44
BIGSUB   1        0   85.37027E+02 0.000E+00 0.000E+00 0.128E+01 0.646E+00 0.114E+03 0.246E-04 0.252E+01 0.611E+00 0.332E+01 0.786E-02 0.597E-02 0.194E-01 0.140E-44
BIGSUB   1        0   86.37027E+02 0.000E+00 0.000E+00 0.129E+01 0.650E+00 0.113E+03 0.000E+00 0.138E+01 0.607E+00 0.218E+01 0.354E-02 0.298E-02 0.811E-02 0.140E-44
BIGSUB   1        0   87.37027E+02 0.000E+00 0.208E+02 0.116E+01 0.584E+00 0.115E+03 0.488E+01 0.708E+01 0.688E+00 0.797E+01 0.234E-01 0.185E-01 0.597E-01 0.140E-44
BIGSUB   1        0   88.37027E+02 0.000E+00 0.643E+01 0.273E+01 0.225E+01 0.107E+03 0.662E+01 0.460E+01 0.846E+00 0.567E+01 0.164E-01 0.113E-01 0.410E-01 0.140E-44
BIGSUB   1        0   89.37027E+02 0.000E+00 0.000E+00 0.335E+01 0.277E+01 0.962E+02 0.519E+01 0.249E+01 0.101E+01 0.376E+01 0.719E-02 0.551E-02 0.168E-01 0.140E-44
BIGSUB   1        0   90.37027E+02 0.000E+00 0.000E+00 0.371E+01 0.307E+01 0.904E+02 0.206E+01 0.141E+01 0.112E+01 0.280E+01 0.341E-02 0.288E-02 0.731E-02 0.140E-44
BIGSUB   1        0   91.37027E+02 0.000E+00 0.000E+00 0.287E+01 0.224E+01 0.881E+02 0.107E-05 0.832E+00 0.116E+01 0.225E+01 0.172E-02 0.158E-02 0.334E-02 0.140E-44
BIGSUB   1        0   92.37027E+02 0.000E+00 0.000E+00 0.396E+01 0.281E+01 0.853E+02 0.000E+00 0.503E+00 0.116E+01 0.192E+01 0.917E-03 0.901E-03 0.161E-02 0.140E-44
BIGSUB   1        0   93.37027E+02 0.000E+00 0.000E+00 0.319E+01 0.202E+01 0.833E+02 0.000E+00 0.310E+00 0.113E+01 0.170E+01 0.515E-03 0.530E-03 0.815E-03 0.140E-44
BIGSUB   1        0   94.37027E+02 0.330E+01 0.000E+00 0.466E+00 0.393E+00 0.861E+02 0.000E+00 0.165E+00 0.110E+01 0.151E+01 0.301E-03 0.320E-03 0.437E-03 0.140E-44
BIGSUB   1        0   95.37027E+02 0.000E+00 0.000E+00 0.228E+01 0.191E+01 0.841E+02 0.000E+00 0.123E+00 0.106E+01 0.143E+01 0.182E-03 0.196E-03 0.246E-03 0.140E-44
BIGSUB   1        0   96.37027E+02 0.000E+00 0.000E+00 0.365E+01 0.253E+01 0.816E+02 0.000E+00 0.782E-01 0.101E+01 0.134E+01 0.113E-03 0.122E-03 0.144E-03 0.140E-44
BIGSUB   1        0   97.37027E+02 0.000E+00 0.000E+00 0.362E+01 0.219E+01 0.794E+02 0.000E+00 0.502E-01 0.968E+00 0.126E+01 0.717E-04 0.768E-04 0.877E-04 0.140E-44
BIGSUB   1        0   98.37027E+02 0.000E+00 0.000E+00 0.349E+01 0.187E+01 0.775E+02 0.000E+00 0.324E-01 0.924E+00 0.120E+01 0.459E-04 0.488E-04 0.546E-04 0.140E-44
BIGSUB   1        0   99.37027E+02 0.000E+00 0.000E+00 0.399E+01 0.195E+01 0.756E+02 0.000E+00 0.210E-01 0.882E+00 0.114E+01 0.297E-04 0.312E-04 0.346E-04 0.140E-44
BIGSUB   1        0  100.37027E+02 0.000E+00 0.000E+00 0.320E+01 0.144E+01 0.742E+02 0.000E+00 0.137E-01 0.841E+00 0.109E+01 0.194E-04 0.200E-04 0.222E-04 0.140E-44
BIGSUB   1        0  101.37027E+02 0.560E+01 0.000E+00 0.000E+00 0.000E+00 0.742E+02 0.000E+00 0.893E-02 0.801E+00 0.104E+01 0.127E-04 0.129E-04 0.144E-04 0.140E-44
BIGSUB   1        0  102.37027E+02 0.380E+01 0.000E+00 0.647E-02 0.323E-02 0.742E+02 0.000E+00 0.584E-02 0.764E+00 0.100E+01 0.832E-05 0.837E-05 0.942E-05 0.140E-44
BIGSUB   1        0  103.37027E+02 0.000E+00 0.000E+00 0.149E+01 0.749E+00 0.742E+02 0.000E+00 0.383E-02 0.728E+00 0.961E+00 0.548E-05 0.544E-05 0.617E-05 0.140E-44
BIGSUB   1        0  104.37027E+02 0.000E+00 0.865E+01 0.202E+01 0.170E+01 0.804E+02 0.000E+00 0.986E-04 0.694E+00 0.928E+00 0.361E-05 0.355E-05 0.406E-05 0.140E-44
BIGSUB   1        0  105.37027E+02 0.000E+00 0.000E+00 0.310E+01 0.220E+01 0.782E+02 0.000E+00 0.165E-02 0.661E+00 0.894E+00 0.239E-05 0.232E-05 0.268E-05 0.140E-44
BIGSUB   1        0  106.37027E+02 0.155E+02 0.000E+00 0.245E+00 0.210E+00 0.911E+02 0.230E+00 0.317E-04 0.634E+00 0.884E+00 0.158E-05 0.152E-05 0.177E-05 0.140E-44
BIGSUB   1        0  107.37027E+02 0.560E+01 0.000E+00 0.912E+00 0.775E+00 0.925E+02 0.191E+01 0.181E-04 0.644E+00 0.906E+00 0.105E-05 0.994E-06 0.117E-05 0.140E-44
BIGSUB   1        0  108.37027E+02 0.230E+01 0.000E+00 0.922E+00 0.793E+00 0.929E+02 0.673E+00 0.243E-03 0.649E+00 0.913E+00 0.693E-06 0.653E-06 0.775E-06 0.140E-44
BIGSUB   1        0  109.37027E+02 0.000E+00 0.000E+00 0.367E+01 0.314E+01 0.897E+02 0.433E-04 0.313E-03 0.638E+00 0.900E+00 0.459E-06 0.429E-06 0.513E-06 0.140E-44
BIGSUB   1        0  110.37027E+02 0.000E+00 0.000E+00 0.370E+01 0.301E+01 0.867E+02 0.160E-06 0.207E-03 0.620E+00 0.879E+00 0.305E-06 0.282E-06 0.340E-06 0.140E-44
BIGSUB   1        0  111.37027E+02 0.000E+00 0.000E+00 0.327E+01 0.238E+01 0.844E+02 0.000E+00 0.137E-03 0.597E+00 0.854E+00 0.202E-06 0.186E-06 0.226E-06 0.140E-44
BIGSUB   1        0  112.37027E+02 0.810E+01 0.000E+00 0.123E+01 0.106E+01 0.907E+02 0.000E+00 0.905E-04 0.573E+00 0.834E+00 0.134E-06 0.123E-06 0.150E-06 0.140E-44
BIGSUB   1        0  113.37027E+02 0.940E+01 0.000E+00 0.191E+01 0.165E+01 0.925E+02 0.338E+01 0.600E-04 0.613E+00 0.896E+00 0.892E-07 0.812E-07 0.998E-07 0.140E-44
[...]
BIGSUB   1        0  246.37027E+02 0.000E+00 0.000E+00 0.308E+01 0.207E+01 0.677E+02 0.000E+00 0.377E-04 0.422E+00 0.106E+01 0.278E-07 0.315E-06 0.525E-07 0.140E-44
BIGSUB   1        0  247.37027E+02 0.000E+00 0.000E+00 0.311E+01 0.194E+01 0.657E+02 0.000E+00 0.216E-04 0.403E+00 0.103E+01 0.153E-07 0.182E-06 0.268E-07 0.140E-44
BIGSUB   1        0  248.37027E+02 0.000E+00 0.000E+00 0.348E+01 0.197E+01 0.638E+02 0.000E+00 0.125E-04 0.384E+00 0.101E+01 0.868E-08 0.105E-06 0.143E-07 0.140E-44
BIGSUB   1        0  249.37027E+02 0.000E+00 0.000E+00 0.358E+01 0.189E+01 0.619E+02 0.000E+00 0.734E-05 0.366E+00 0.981E+00 0.504E-08 0.610E-07 0.804E-08 0.140E-44
BIGSUB   1        0  250.37027E+02 0.000E+00 0.000E+00 0.347E+01 0.184E+01 0.600E+02 0.000E+00 0.437E-05 0.349E+00 0.958E+00 0.304E-08 0.355E-07 0.478E-08 0.140E-44
BIGSUB   1        0  251.37027E+02 0.000E+00 0.000E+00 0.387E+01 0.166E+01 0.584E+02 0.000E+00 0.266E-05 0.332E+00 0.936E+00 0.192E-08 0.208E-07 0.303E-08 0.140E-44
BIGSUB   1        0  252.37027E+02 0.510E+01 0.000E+00 0.115E+01 0.891E+00 0.622E+02 0.000E+00 0.170E-05 0.316E+00 0.918E+00 0.129E-08 0.122E-07 0.208E-08 0.140E-44
BIGSUB   1        0  253.37027E+02 0.241E+02 0.000E+00 0.304E+01 0.252E+01 0.794E+02 0.446E+00 0.116E-05 0.310E+00 0.944E+00 0.926E-09 0.726E-08 0.155E-08 0.140E-44
BIGSUB   1        0  254.37027E+02 0.000E+00 0.000E+00 0.561E+01 0.430E+01 0.751E+02 0.000E+00 0.859E-06 0.300E+00 0.928E+00 0.719E-09 0.440E-08 0.126E-08 0.140E-44
BIGSUB   1        0  255.37027E+02 0.000E+00 0.000E+00 0.337E+01 0.220E+01 0.729E+02 0.000E+00 0.680E-06 0.289E+00 0.911E+00 0.598E-09 0.273E-08 0.109E-08 0.140E-44
BIGSUB   1        0  256.37027E+02 0.000E+00 0.000E+00 0.395E+01 0.230E+01 0.706E+02 0.000E+00 0.575E-06 0.277E+00 0.893E+00 0.527E-09 0.176E-08 0.999E-09 0.140E-44
BIGSUB   1        0  257.37027E+02 0.000E+00 0.000E+00 0.431E+01 0.237E+01 0.682E+02 0.000E+00 0.514E-06 0.265E+00 0.875E+00 0.486E-09 0.120E-08 0.953E-09 0.140E-44
BIGSUB   1        0  258.37027E+02 0.000E+00 0.000E+00 0.446E+01 0.230E+01 0.659E+02 0.000E+00 0.478E-06 0.253E+00 0.857E+00 0.462E-09 0.879E-09 0.927E-09 0.140E-44
BIGSUB   1        0  259.37027E+02 0.000E+00 0.000E+00 0.347E+01 0.168E+01 0.642E+02 0.000E+00 0.461E-06 0.241E+00 0.839E+00 0.461E-09 0.692E-09 0.922E-09 0.140E-44
BIGSUB   1        0  260.37027E+02 0.000E+00 0.000E+00 0.348E+01 0.160E+01 0.626E+02 0.000E+00 0.461E-06 0.230E+00 0.822E+00 0.461E-09 0.582E-09 0.922E-09 0.140E-44
BIGSUB   1        0  261.37027E+02 0.378E+02 0.000E+00 0.101E+01 0.847E+00 0.875E+02 0.450E+01 0.342E-03 0.306E+00 0.966E+00 0.461E-09 0.407E-05 0.922E-09 0.140E-44
BIGSUB   1        0  262.37027E+02 0.533E+02 0.000E+00 0.522E+00 0.437E+00 0.926E+02 0.225E+02 0.397E+01 0.773E+00 0.556E+01 0.124E-01 0.205E-01 0.377E-01 0.140E-44
BIGSUB   1        0  263.37027E+02 0.000E+00 0.000E+00 0.186E+01 0.157E+01 0.910E+02 0.105E-02 0.214E+01 0.101E+01 0.395E+01 0.524E-02 0.104E-01 0.149E-01 0.140E-44
BIGSUB   1        0  264.37027E+02 0.000E+00 0.000E+00 0.265E+01 0.221E+01 0.888E+02 0.000E+00 0.123E+01 0.112E+01 0.314E+01 0.241E-02 0.570E-02 0.617E-02 0.140E-44
BIGSUB   1        0  265.37027E+02 0.000E+00 0.000E+00 0.228E+01 0.188E+01 0.869E+02 0.000E+00 0.732E+00 0.116E+01 0.268E+01 0.120E-02 0.327E-02 0.269E-02 0.140E-44
BIGSUB   1        0  266.37027E+02 0.000E+00 0.000E+00 0.348E+01 0.275E+01 0.841E+02 0.000E+00 0.449E+00 0.116E+01 0.238E+01 0.635E-03 0.194E-02 0.124E-02 0.140E-44
BIGSUB   1        0  267.37027E+02 0.000E+00 0.000E+00 0.360E+01 0.259E+01 0.816E+02 0.000E+00 0.281E+00 0.113E+01 0.218E+01 0.356E-03 0.118E-02 0.601E-03 0.140E-44
BIGSUB   1        0  268.37027E+02 0.000E+00 0.000E+00 0.204E+01 0.132E+01 0.802E+02 0.000E+00 0.178E+00 0.109E+01 0.203E+01 0.209E-03 0.727E-03 0.310E-03 0.140E-44
BIGSUB   1        0  269.37027E+02 0.000E+00 0.000E+00 0.299E+01 0.186E+01 0.784E+02 0.000E+00 0.114E+00 0.105E+01 0.192E+01 0.127E-03 0.455E-03 0.170E-03 0.140E-44
BIGSUB   1        0  270.37027E+02 0.000E+00 0.000E+00 0.363E+01 0.213E+01 0.763E+02 0.000E+00 0.733E-01 0.101E+01 0.183E+01 0.793E-04 0.287E-03 0.974E-04 0.140E-44
BIGSUB   1        0  271.37027E+02 0.000E+00 0.000E+00 0.232E+01 0.128E+01 0.750E+02 0.000E+00 0.475E-01 0.963E+00 0.175E+01 0.503E-04 0.183E-03 0.582E-04 0.140E-44
BIGSUB   1        0  272.37027E+02 0.119E+02 0.000E+00 0.118E+01 0.999E+00 0.848E+02 0.000E+00 0.135E-01 0.920E+00 0.168E+01 0.323E-04 0.117E-03 0.358E-04 0.140E-44
BIGSUB   1        0  273.37027E+02 0.000E+00 0.000E+00 0.272E+01 0.227E+01 0.825E+02 0.000E+00 0.202E-01 0.877E+00 0.163E+01 0.209E-04 0.756E-04 0.226E-04 0.140E-44
BIGSUB   1        0  274.37027E+02 0.000E+00 0.000E+00 0.240E+01 0.188E+01 0.806E+02 0.000E+00 0.132E-01 0.837E+00 0.158E+01 0.136E-04 0.489E-04 0.144E-04 0.140E-44
BIGSUB   1        0  275.37027E+02 0.000E+00 0.000E+00 0.266E+01 0.193E+01 0.787E+02 0.000E+00 0.870E-02 0.798E+00 0.153E+01 0.891E-05 0.318E-04 0.930E-05 0.140E-44
BIGSUB   1        0  276.37027E+02 0.000E+00 0.000E+00 0.242E+01 0.165E+01 0.770E+02 0.000E+00 0.572E-02 0.760E+00 0.148E+01 0.585E-05 0.207E-04 0.605E-05 0.140E-44
BIGSUB   1        0  277.37027E+02 0.000E+00 0.000E+00 0.342E+01 0.214E+01 0.749E+02 0.000E+00 0.377E-02 0.725E+00 0.144E+01 0.385E-05 0.135E-04 0.396E-05 0.140E-44
BIGSUB   1        0  278.37027E+02 0.000E+00 0.000E+00 0.350E+01 0.201E+01 0.729E+02 0.000E+00 0.249E-02 0.691E+00 0.139E+01 0.254E-05 0.886E-05 0.260E-05 0.140E-44
BIGSUB   1        0  279.37027E+02 0.000E+00 0.000E+00 0.349E+01 0.187E+01 0.710E+02 0.000E+00 0.165E-02 0.658E+00 0.135E+01 0.168E-05 0.582E-05 0.171E-05 0.140E-44
BIGSUB   1        0  280.37027E+02 0.000E+00 0.000E+00 0.187E+01 0.948E+00 0.701E+02 0.000E+00 0.109E-02 0.627E+00 0.132E+01 0.111E-05 0.382E-05 0.113E-05 0.140E-44
BIGSUB   1        0  281.37027E+02 0.000E+00 0.000E+00 0.222E+01 0.111E+01 0.690E+02 0.000E+00 0.720E-03 0.597E+00 0.128E+01 0.733E-06 0.252E-05 0.745E-06 0.140E-44
BIGSUB   1        0  282.37027E+02 0.000E+00 0.000E+00 0.167E+01 0.815E+00 0.681E+02 0.000E+00 0.477E-03 0.569E+00 0.124E+01 0.486E-06 0.166E-05 0.493E-06 0.140E-44
BIGSUB   1        0  283.37027E+02 0.000E+00 0.000E+00 0.240E+01 0.115E+01 0.670E+02 0.000E+00 0.316E-03 0.542E+00 0.121E+01 0.322E-06 0.110E-05 0.327E-06 0.140E-44
BIGSUB   1        0  284.37027E+02 0.000E+00 0.000E+00 0.277E+01 0.131E+01 0.657E+02 0.000E+00 0.210E-03 0.517E+00 0.118E+01 0.214E-06 0.724E-06 0.217E-06 0.140E-44
BIGSUB   1        0  285.37027E+02 0.000E+00 0.000E+00 0.242E+01 0.110E+01 0.646E+02 0.000E+00 0.139E-03 0.493E+00 0.115E+01 0.142E-06 0.479E-06 0.144E-06 0.140E-44
BIGSUB   1        0  286.37027E+02 0.000E+00 0.000E+00 0.274E+01 0.120E+01 0.634E+02 0.000E+00 0.926E-04 0.469E+00 0.112E+01 0.944E-07 0.317E-06 0.956E-07 0.140E-44
BIGSUB   1        0  287.37027E+02 0.000E+00 0.000E+00 0.324E+01 0.139E+01 0.620E+02 0.000E+00 0.616E-04 0.447E+00 0.109E+01 0.628E-07 0.210E-06 0.637E-07 0.140E-44
BIGSUB   1        0  288.37027E+02 0.000E+00 0.000E+00 0.141E+01 0.584E+00 0.614E+02 0.000E+00 0.410E-04 0.426E+00 0.106E+01 0.418E-07 0.140E-06 0.425E-07 0.140E-44
BIGSUB   1        0  289.37027E+02 0.000E+00 0.000E+00 0.413E+01 0.168E+01 0.597E+02 0.000E+00 0.274E-04 0.406E+00 0.104E+01 0.279E-07 0.927E-07 0.284E-07 0.140E-44
BIGSUB   1        0  290.37027E+02 0.000E+00 0.000E+00 0.232E+01 0.937E+00 0.588E+02 0.000E+00 0.183E-04 0.387E+00 0.101E+01 0.186E-07 0.616E-07 0.191E-07 0.140E-44
BIGSUB   1        0  291.37027E+02 0.000E+00 0.000E+00 0.291E+01 0.111E+01 0.577E+02 0.000E+00 0.123E-04 0.369E+00 0.987E+00 0.125E-07 0.410E-07 0.129E-07 0.140E-44
BIGSUB   1        0  292.37027E+02 0.000E+00 0.000E+00 0.191E+01 0.702E+00 0.570E+02 0.000E+00 0.825E-05 0.351E+00 0.964E+00 0.842E-08 0.273E-07 0.878E-08 0.140E-44
BIGSUB   1        0  293.37027E+02 0.000E+00 0.000E+00 0.228E+01 0.853E+00 0.561E+02 0.000E+00 0.560E-05 0.335E+00 0.941E+00 0.570E-08 0.183E-07 0.605E-08 0.140E-44
BIGSUB   1        0  294.37027E+02 0.000E+00 0.000E+00 0.171E+01 0.625E+00 0.555E+02 0.000E+00 0.383E-05 0.319E+00 0.920E+00 0.390E-08 0.122E-07 0.424E-08 0.140E-44
BIGSUB   1        0  295.37027E+02 0.000E+00 0.000E+00 0.208E+01 0.752E+00 0.547E+02 0.000E+00 0.266E-05 0.304E+00 0.899E+00 0.271E-08 0.824E-08 0.304E-08 0.140E-44
BIGSUB   1        0  296.37027E+02 0.000E+00 0.000E+00 0.226E+01 0.807E+00 0.539E+02 0.000E+00 0.187E-05 0.290E+00 0.879E+00 0.191E-08 0.558E-08 0.225E-08 0.140E-44
BIGSUB   1        0  297.37027E+02 0.000E+00 0.000E+00 0.135E+01 0.497E+00 0.534E+02 0.000E+00 0.135E-05 0.276E+00 0.859E+00 0.138E-08 0.382E-08 0.173E-08 0.140E-44
BIGSUB   1        0  298.37027E+02 0.000E+00 0.000E+00 0.217E+01 0.767E+00 0.527E+02 0.000E+00 0.101E-05 0.263E+00 0.841E+00 0.102E-08 0.265E-08 0.139E-08 0.140E-44
BIGSUB   1        0  299.37027E+02 0.000E+00 0.000E+00 0.115E+01 0.387E+00 0.523E+02 0.000E+00 0.787E-06 0.251E+00 0.823E+00 0.802E-09 0.187E-08 0.117E-08 0.140E-44
BIGSUB   1        0  300.37027E+02 0.000E+00 0.000E+00 0.198E+01 0.686E+00 0.516E+02 0.000E+00 0.645E-06 0.239E+00 0.805E+00 0.655E-09 0.135E-08 0.105E-08 0.140E-44
BIGSUB   1        0  301.37027E+02 0.000E+00 0.000E+00 0.272E+01 0.931E+00 0.507E+02 0.000E+00 0.550E-06 0.227E+00 0.789E+00 0.557E-09 0.101E-08 0.976E-09 0.140E-44
BIGSUB   1        0  302.37027E+02 0.000E+00 0.000E+00 0.158E+01 0.529E+00 0.501E+02 0.000E+00 0.487E-06 0.217E+00 0.773E+00 0.491E-09 0.782E-09 0.927E-09 0.140E-44
BIGSUB   1        0  303.37027E+02 0.000E+00 0.000E+00 0.131E+01 0.421E+00 0.497E+02 0.000E+00 0.461E-06 0.207E+00 0.757E+00 0.461E-09 0.642E-09 0.922E-09 0.140E-44
BIGSUB   1        0  304.37027E+02 0.000E+00 0.000E+00 0.199E+01 0.679E+00 0.490E+02 0.000E+00 0.461E-06 0.197E+00 0.742E+00 0.461E-09 0.548E-09 0.922E-09 0.140E-44
BIGSUB   1        0  305.37027E+02 0.000E+00 0.000E+00 0.182E+01 0.585E+00 0.485E+02 0.000E+00 0.461E-06 0.187E+00 0.727E+00 0.461E-09 0.493E-09 0.922E-09 0.140E-44
BIGSUB   1        0  306.37027E+02 0.000E+00 0.000E+00 0.246E+01 0.816E+00 0.476E+02 0.000E+00 0.461E-06 0.179E+00 0.713E+00 0.461E-09 0.467E-09 0.922E-09 0.140E-44
BIGSUB   1        0  307.37027E+02 0.000E+00 0.000E+00 0.109E+01 0.350E+00 0.473E+02 0.000E+00 0.461E-06 0.170E+00 0.700E+00 0.461E-09 0.461E-09 0.922E-09 0.140E-44
BIGSUB   1        0  308.37027E+02 0.000E+00 0.000E+00 0.246E+01 0.806E+00 0.465E+02 0.000E+00 0.461E-06 0.162E+00 0.687E+00 0.461E-09 0.461E-09 0.922E-09 0.140E-44
BIGSUB   1        0  309.37027E+02 0.000E+00 0.000E+00 0.138E+01 0.411E+00 0.461E+02 0.000E+00 0.461E-06 0.155E+00 0.674E+00 0.461E-09 0.461E-09 0.922E-09 0.140E-44
BIGSUB   1        0  310.37027E+02 0.000E+00 0.000E+00 0.119E+01 0.357E+00 0.457E+02 0.000E+00 0.461E-06 0.147E+00 0.662E+00 0.461E-09 0.461E-09 0.922E-09 0.140E-44
BIGSUB   1        0  311.37027E+02 0.000E+00 0.000E+00 0.113E+01 0.332E+00 0.454E+02 0.000E+00 0.461E-06 0.140E+00 0.650E+00 0.461E-09 0.461E-09 0.922E-09 0.140E-44
BIGSUB   1        0  312.37027E+02 0.000E+00 0.000E+00 0.229E+01 0.413E+00 0.450E+02 0.000E+00 0.461E-06 0.134E+00 0.638E+00 0.461E-09 0.461E-09 0.922E-09 0.140E-44
BIGSUB   1        0  313.37027E+02 0.000E+00 0.000E+00 0.187E+01 0.323E+00 0.446E+02 0.000E+00 0.461E-06 0.127E+00 0.627E+00 0.461E-09 0.461E-09 0.922E-09 0.140E-44
BIGSUB   1        0  314.37027E+02 0.000E+00 0.000E+00 0.117E+01 0.200E+00 0.444E+02 0.000E+00 0.461E-06 0.121E+00 0.616E+00 0.461E-09 0.461E-09 0.922E-09 0.140E-44
BIGSUB   1        0  315.37027E+02 0.000E+00 0.000E+00 0.161E+01 0.274E+00 0.442E+02 0.000E+00 0.461E-06 0.116E+00 0.606E+00 0.461E-09 0.461E-09 0.922E-09 0.140E-44
BIGSUB   1        0  316.37027E+02 0.000E+00 0.000E+00 0.117E+01 0.196E+00 0.440E+02 0.000E+00 0.461E-06 0.110E+00 0.595E+00 0.461E-09 0.461E-09 0.922E-09 0.140E-44
BIGSUB   1        0  317.37027E+02 0.000E+00 0.000E+00 0.143E+01 0.239E+00 0.437E+02 0.000E+00 0.461E-06 0.105E+00 0.585E+00 0.461E-09 0.461E-09 0.922E-09 0.140E-44
BIGSUB   1        0  318.37027E+02 0.000E+00 0.000E+00 0.727E+00 0.121E+00 0.436E+02 0.000E+00 0.461E-06 0.100E+00 0.576E+00 0.461E-09 0.461E-09 0.922E-09 0.140E-44
BIGSUB   1        0  319.37027E+02 0.000E+00 0.000E+00 0.953E+00 0.158E+00 0.435E+02 0.000E+00 0.461E-06 0.954E-01 0.567E+00 0.461E-09 0.461E-09 0.922E-09 0.140E-44
BIGSUB   1        0  320.37027E+02 0.000E+00 0.000E+00 0.147E+01 0.242E+00 0.432E+02 0.000E+00 0.461E-06 0.909E-01 0.557E+00 0.461E-09 0.461E-09 0.922E-09 0.140E-44
BIGSUB   1        0  321.37027E+02 0.000E+00 0.000E+00 0.191E+01 0.314E+00 0.429E+02 0.000E+00 0.461E-06 0.866E-01 0.549E+00 0.461E-09 0.461E-09 0.922E-09 0.140E-44
BIGSUB   1        0  322.37027E+02 0.000E+00 0.000E+00 0.134E+01 0.218E+00 0.427E+02 0.000E+00 0.461E-06 0.825E-01 0.540E+00 0.461E-09 0.461E-09 0.922E-09 0.140E-44
BIGSUB   1        0  323.37027E+02 0.000E+00 0.000E+00 0.198E+01 0.319E+00 0.424E+02 0.000E+00 0.461E-06 0.786E-01 0.532E+00 0.461E-09 0.461E-09 0.922E-09 0.140E-44
BIGSUB   1        0  324.37027E+02 0.000E+00 0.000E+00 0.905E+00 0.144E+00 0.422E+02 0.000E+00 0.461E-06 0.749E-01 0.524E+00 0.461E-09 0.461E-09 0.922E-09 0.140E-44
BIGSUB   1        0  325.37027E+02 0.000E+00 0.000E+00 0.168E+01 0.267E+00 0.420E+02 0.000E+00 0.461E-06 0.714E-01 0.516E+00 0.461E-09 0.461E-09 0.922E-09 0.140E-44
BIGSUB   1        0  326.37027E+02 0.000E+00 0.000E+00 0.152E+01 0.239E+00 0.417E+02 0.000E+00 0.461E-06 0.680E-01 0.508E+00 0.461E-09 0.461E-09 0.922E-09 0.140E-44
BIGSUB   1        0  327.37027E+02 0.000E+00 0.000E+00 0.227E+01 0.355E+00 0.414E+02 0.000E+00 0.461E-06 0.648E-01 0.501E+00 0.461E-09 0.461E-09 0.922E-09 0.140E-44
BIGSUB   1        0  328.37027E+02 0.000E+00 0.000E+00 0.171E+01 0.265E+00 0.411E+02 0.000E+00 0.461E-06 0.617E-01 0.493E+00 0.461E-09 0.461E-09 0.922E-09 0.140E-44
BIGSUB   1        0  329.37027E+02 0.000E+00 0.000E+00 0.130E+01 0.199E+00 0.409E+02 0.000E+00 0.461E-06 0.588E-01 0.486E+00 0.461E-09 0.461E-09 0.922E-09 0.140E-44
BIGSUB   1        0  330.37027E+02 0.000E+00 0.000E+00 0.147E+01 0.231E+00 0.407E+02 0.000E+00 0.461E-06 0.561E-01 0.479E+00 0.461E-09 0.461E-09 0.922E-09 0.140E-44
BIGSUB   1        0  331.37027E+02 0.000E+00 0.000E+00 0.116E+01 0.175E+00 0.405E+02 0.000E+00 0.461E-06 0.534E-01 0.473E+00 0.461E-09 0.461E-09 0.922E-09 0.140E-44
BIGSUB   1        0  332.37027E+02 0.000E+00 0.000E+00 0.119E+01 0.178E+00 0.403E+02 0.000E+00 0.461E-06 0.509E-01 0.466E+00 0.461E-09 0.461E-09 0.922E-09 0.140E-44
BIGSUB   1        0  333.37027E+02 0.000E+00 0.000E+00 0.171E+01 0.257E+00 0.401E+02 0.000E+00 0.461E-06 0.485E-01 0.460E+00 0.461E-09 0.461E-09 0.922E-09 0.140E-44
BIGSUB   1        0  334.37027E+02 0.000E+00 0.000E+00 0.175E+01 0.260E+00 0.398E+02 0.000E+00 0.461E-06 0.462E-01 0.454E+00 0.461E-09 0.461E-09 0.922E-09 0.140E-44
BIGSUB   1        0  335.37027E+02 0.000E+00 0.000E+00 0.214E+01 0.316E+00 0.395E+02 0.000E+00 0.461E-06 0.440E-01 0.447E+00 0.461E-09 0.461E-09 0.922E-09 0.140E-44
BIGSUB   1        0  336.37027E+02 0.000E+00 0.000E+00 0.158E+01 0.230E+00 0.393E+02 0.000E+00 0.461E-06 0.420E-01 0.441E+00 0.461E-09 0.461E-09 0.922E-09 0.140E-44
BIGSUB   1        0  337.37027E+02 0.000E+00 0.000E+00 0.103E+01 0.149E+00 0.391E+02 0.000E+00 0.461E-06 0.400E-01 0.436E+00 0.461E-09 0.461E-09 0.922E-09 0.140E-44
BIGSUB   1        0  338.37027E+02 0.000E+00 0.000E+00 0.146E+01 0.210E+00 0.389E+02 0.000E+00 0.461E-06 0.381E-01 0.430E+00 0.461E-09 0.461E-09 0.922E-09 0.140E-44
BIGSUB   1        0  339.37027E+02 0.000E+00 0.000E+00 0.926E+00 0.133E+00 0.388E+02 0.000E+00 0.461E-06 0.363E-01 0.424E+00 0.461E-09 0.461E-09 0.922E-09 0.140E-44
BIGSUB   1        0  340.37027E+02 0.000E+00 0.000E+00 0.914E+00 0.130E+00 0.386E+02 0.000E+00 0.461E-06 0.346E-01 0.419E+00 0.461E-09 0.461E-09 0.922E-09 0.140E-44
BIGSUB   1        0  341.37027E+02 0.000E+00 0.000E+00 0.122E+01 0.173E+00 0.385E+02 0.000E+00 0.461E-06 0.330E-01 0.413E+00 0.461E-09 0.461E-09 0.922E-09 0.140E-44
BIGSUB   1        0  342.37027E+02 0.000E+00 0.000E+00 0.168E+01 0.238E+00 0.382E+02 0.000E+00 0.461E-06 0.314E-01 0.408E+00 0.461E-09 0.461E-09 0.922E-09 0.140E-44
BIGSUB   1        0  343.37027E+02 0.000E+00 0.000E+00 0.142E+01 0.199E+00 0.380E+02 0.000E+00 0.461E-06 0.299E-01 0.403E+00 0.461E-09 0.461E-09 0.922E-09 0.140E-44
BIGSUB   1        0  344.37027E+02 0.000E+00 0.000E+00 0.127E+01 0.178E+00 0.378E+02 0.000E+00 0.461E-06 0.285E-01 0.398E+00 0.461E-09 0.461E-09 0.922E-09 0.140E-44
BIGSUB   1        0  345.37027E+02 0.000E+00 0.000E+00 0.301E+01 0.417E+00 0.374E+02 0.000E+00 0.461E-06 0.272E-01 0.393E+00 0.461E-09 0.461E-09 0.922E-09 0.140E-44
BIGSUB   1        0  346.37027E+02 0.000E+00 0.000E+00 0.231E+01 0.317E+00 0.371E+02 0.000E+00 0.461E-06 0.259E-01 0.388E+00 0.461E-09 0.461E-09 0.922E-09 0.140E-44
BIGSUB   1        0  347.37027E+02 0.000E+00 0.000E+00 0.438E+00 0.593E-01 0.370E+02 0.000E+00 0.461E-06 0.247E-01 0.384E+00 0.461E-09 0.461E-09 0.922E-09 0.140E-44
BIGSUB   1        0  348.37027E+02 0.000E+00 0.000E+00 0.425E+00 0.574E-01 0.370E+02 0.000E+00 0.461E-06 0.235E-01 0.379E+00 0.461E-09 0.461E-09 0.922E-09 0.140E-44
BIGSUB   1        0  349.37027E+02 0.000E+00 0.000E+00 0.335E+00 0.453E-01 0.369E+02 0.000E+00 0.461E-06 0.224E-01 0.374E+00 0.461E-09 0.461E-09 0.922E-09 0.140E-44
BIGSUB   1        0  350.37027E+02 0.000E+00 0.000E+00 0.252E+00 0.340E-01 0.369E+02 0.000E+00 0.461E-06 0.213E-01 0.370E+00 0.461E-09 0.461E-09 0.922E-09 0.140E-44
BIGSUB   1        0  351.37027E+02 0.000E+00 0.000E+00 0.379E+00 0.511E-01 0.369E+02 0.000E+00 0.461E-06 0.203E-01 0.366E+00 0.461E-09 0.461E-09 0.922E-09 0.140E-44
BIGSUB   1        0  352.37027E+02 0.000E+00 0.000E+00 0.124E+01 0.167E+00 0.367E+02 0.000E+00 0.461E-06 0.194E-01 0.361E+00 0.461E-09 0.461E-09 0.922E-09 0.140E-44
BIGSUB   1        0  353.37027E+02 0.000E+00 0.000E+00 0.397E+00 0.531E-01 0.366E+02 0.000E+00 0.461E-06 0.185E-01 0.357E+00 0.461E-09 0.461E-09 0.922E-09 0.140E-44
BIGSUB   1        0  354.37027E+02 0.000E+00 0.000E+00 0.245E+00 0.326E-01 0.366E+02 0.000E+00 0.461E-06 0.176E-01 0.353E+00 0.461E-09 0.461E-09 0.922E-09 0.140E-44
BIGSUB   1        0  355.37027E+02 0.000E+00 0.000E+00 0.539E+00 0.718E-01 0.365E+02 0.000E+00 0.461E-06 0.168E-01 0.349E+00 0.461E-09 0.461E-09 0.922E-09 0.140E-44
BIGSUB   1        0  356.37027E+02 0.000E+00 0.000E+00 0.411E+00 0.547E-01 0.365E+02 0.000E+00 0.461E-06 0.160E-01 0.345E+00 0.461E-09 0.461E-09 0.922E-09 0.140E-44
BIGSUB   1        0  357.37027E+02 0.000E+00 0.000E+00 0.525E+00 0.696E-01 0.364E+02 0.000E+00 0.461E-06 0.152E-01 0.341E+00 0.461E-09 0.461E-09 0.922E-09 0.140E-44
BIGSUB   1        0  358.37027E+02 0.000E+00 0.000E+00 0.136E+01 0.178E+00 0.362E+02 0.000E+00 0.461E-06 0.145E-01 0.337E+00 0.461E-09 0.461E-09 0.922E-09 0.140E-44
BIGSUB   1        0  359.37027E+02 0.000E+00 0.000E+00 0.141E+01 0.183E+00 0.360E+02 0.000E+00 0.461E-06 0.138E-01 0.333E+00 0.461E-09 0.461E-09 0.922E-09 0.140E-44
BIGSUB   1        0  360.37027E+02 0.000E+00 0.000E+00 0.824E+00 0.106E+00 0.359E+02 0.000E+00 0.461E-06 0.132E-01 0.330E+00 0.461E-09 0.461E-09 0.922E-09 0.140E-44
BIGSUB   1        0  361.37027E+02 0.000E+00 0.000E+00 0.591E+00 0.754E-01 0.359E+02 0.000E+00 0.461E-06 0.125E-01 0.326E+00 0.461E-09 0.461E-09 0.922E-09 0.140E-44
BIGSUB   1        0  362.37027E+02 0.000E+00 0.000E+00 0.553E+00 0.703E-01 0.358E+02 0.000E+00 0.461E-06 0.120E-01 0.322E+00 0.461E-09 0.461E-09 0.922E-09 0.140E-44
BIGSUB   1        0  363.37027E+02 0.000E+00 0.000E+00 0.136E+00 0.173E-01 0.358E+02 0.000E+00 0.461E-06 0.114E-01 0.319E+00 0.461E-09 0.461E-09 0.922E-09 0.140E-44
BIGSUB   1        0  364.37027E+02 0.000E+00 0.000E+00 0.707E+00 0.896E-01 0.357E+02 0.000E+00 0.461E-06 0.109E-01 0.315E+00 0.461E-09 0.461E-09 0.922E-09 0.140E-44
BIGSUB   1        0  365.37027E+02 0.000E+00 0.000E+00 0.816E+00 0.103E+00 0.356E+02 0.000E+00 0.461E-06 0.103E-01 0.312E+00 0.461E-09 0.461E-09 0.922E-09 0.140E-44
