1
    SWAT Jun 11 2014    VER 2012/Rev 627                                                                 0/ 0/   0      0: 0: 0

    General Input/Output section (file.cio):                                        
    7/12/2007 12:00:00 AMARCGIS-SWAT interface AV                                   
                                                                                    
         Number of years in run:   10
         Area of watershed:       37.027 km2
1
    SWAT Jun 11 2014    VER 2012/Rev 627                                            

    General Input/Output section (file.cio):                                        
    7/12/2007 12:00:00 AMARCGIS-SWAT interface AV                                   
                                                                                    
Annual Summary for Watershed in year    1 of simulation

UNIT                                    PERCO    TILE                           WATER     SED     NO3     NO3     NO3     NO3        N       P       P
TIME     PREC    SURQ    LATQ     GWQ    LATE       Q     SW       ET     PET   YIELD   YIELD    SURQ    LATQ    PERC    CROP  ORGANIC SOLUBLE ORGANIC TILENO3
         (mm)    (mm)    (mm)    (mm)    (mm)    (mm)    (mm)    (mm)    (mm)    (mm)    (mm)   ------------------(kg nutrient/ha)-------------------- (kg/ha)
1
    SWAT Jun 11 2014    VER 2012/Rev 627                                            

    General Input/Output section (file.cio):                                        
    7/12/2007 12:00:00 AMARCGIS-SWAT interface AV                                   
                                                                                    
Annual Summary for Watershed in year    2 of simulation

UNIT                                    PERCO    TILE                           WATER     SED     NO3     NO3     NO3     NO3        N       P       P
TIME     PREC    SURQ    LATQ     GWQ    LATE       Q     SW       ET     PET   YIELD   YIELD    SURQ    LATQ    PERC    CROP  ORGANIC SOLUBLE ORGANIC TILENO3
         (mm)    (mm)    (mm)    (mm)    (mm)    (mm)    (mm)    (mm)    (mm)    (mm)    (mm)   ------------------(kg nutrient/ha)-------------------- (kg/ha)
1
    SWAT Jun 11 2014    VER 2012/Rev 627                                            

    General Input/Output section (file.cio):                                        
    7/12/2007 12:00:00 AMARCGIS-SWAT interface AV                                   
                                                                                    
Annual Summary for Watershed in year    3 of simulation

UNIT                                    PERCO    TILE                           WATER     SED     NO3     NO3     NO3     NO3        N       P       P
TIME     PREC    SURQ    LATQ     GWQ    LATE       Q     SW       ET     PET   YIELD   YIELD    SURQ    LATQ    PERC    CROP  ORGANIC SOLUBLE ORGANIC TILENO3
         (mm)    (mm)    (mm)    (mm)    (mm)    (mm)    (mm)    (mm)    (mm)    (mm)    (mm)   ------------------(kg nutrient/ha)-------------------- (kg/ha)
1
    SWAT Jun 11 2014    VER 2012/Rev 627                                            

    General Input/Output section (file.cio):                                        
    7/12/2007 12:00:00 AMARCGIS-SWAT interface AV                                   
                                                                                    
Annual Summary for Watershed in year    4 of simulation

UNIT                                    PERCO    TILE                           WATER     SED     NO3     NO3     NO3     NO3        N       P       P
TIME     PREC    SURQ    LATQ     GWQ    LATE       Q     SW       ET     PET   YIELD   YIELD    SURQ    LATQ    PERC    CROP  ORGANIC SOLUBLE ORGANIC TILENO3
         (mm)    (mm)    (mm)    (mm)    (mm)    (mm)    (mm)    (mm)    (mm)    (mm)    (mm)   ------------------(kg nutrient/ha)-------------------- (kg/ha)
    1    1.00    0.00    0.31    0.15    0.00    0.00  104.36    0.02    0.04    0.47    0.00    0.00    0.01    0.00    0.00     0.00    0.00    0.00    0.00
    2    0.00    0.00    0.31    0.14    0.00    0.00  104.10    0.26    0.52    0.45    0.00    0.00    0.01    0.00    0.00     0.00    0.00    0.00    0.00
    3    6.10    3.03    0.30    0.13    0.00    0.00  111.77    0.00    0.00    1.78    0.00    0.01    0.01    0.00    0.00     0.01    0.00    0.01    0.00
    4    5.60   13.13    0.30    0.13    0.33    0.00  119.14    0.00    0.00    7.08    0.00    0.04    0.01    0.05    0.00     0.03    0.01    0.02    0.00
    5    0.50    9.15    0.31    0.28    7.62    0.00  114.96    0.16    0.32    8.17    0.00    0.06    0.01    1.52    0.00     0.03    0.02    0.02    0.00
    6    2.80   18.33    0.32    0.47    5.97    0.00  114.77    0.00    0.00   13.26    0.00    0.09    0.01    1.05    0.00     0.05    0.02    0.03    0.00
    7   11.70   32.50    0.33    0.69    6.44    0.00  114.77    0.22    0.44   22.49    0.00    0.16    0.01    0.98    0.00     0.09    0.04    0.06    0.00
    8   21.80   19.88    0.38    1.04   12.69    0.00  103.17    0.46    0.63   21.65    0.00    0.19    0.01    1.91    0.00     0.08    0.04    0.05    0.00
    9   28.40    5.91    0.49    1.56   18.25    0.00   95.59    0.67    0.91   15.41    0.01    0.13    0.01    2.12    0.00     0.06    0.02    0.04    0.00
   10    2.80    0.00    0.49    1.84    1.53    0.00   95.74    0.20    0.28    9.70    0.00    0.07    0.01    0.09    0.00     0.02    0.01    0.02    0.00
   11    0.00    0.00    0.49    1.95    0.00    0.00   94.09    1.65    2.25    6.73    0.00    0.04    0.01    0.00    0.00     0.01    0.01    0.01    0.00
   12    0.00    0.00    0.48    1.98    0.00    0.00   93.57    0.52    0.71    5.02    0.00    0.02    0.01    0.00    0.00     0.01    0.00    0.00    0.00
   13    3.00    0.00    0.48    1.95    0.00    0.00   93.28    0.28    0.57    4.00    0.00    0.02    0.01    0.00    0.00     0.00    0.00    0.00    0.00
   14    0.00    0.00    0.47    1.90    0.00    0.00   92.66    0.62    1.24    3.34    0.00    0.01    0.01    0.00    0.00     0.00    0.00    0.00    0.00
   15    0.00    0.00    0.47    1.83    0.00    0.00   92.44    0.23    0.46    2.91    0.00    0.01    0.01    0.00    0.00     0.00    0.00    0.00    0.00
   16   17.30    0.00    0.46    1.76    0.00    0.00   92.44    0.00    0.00    2.61    0.00    0.00    0.01    0.00    0.00     0.00    0.00    0.00    0.00
   17    0.00    0.00    0.46    1.68    0.00    0.00   91.97    0.47    0.94    2.39    0.00    0.00    0.01    0.00    0.00     0.00    0.00    0.00    0.00
   18    1.00    0.00    0.45    1.60    0.00    0.00   91.56    0.41    0.82    2.22    0.00    0.00    0.01    0.00    0.00     0.00    0.00    0.00    0.00
   19    0.80    0.00    0.45    1.53    0.00    0.00   91.56    0.00    0.00    2.08    0.00    0.00    0.01    0.00    0.00     0.00    0.00    0.00    0.00
   20    0.80    0.00    0.44    1.46    0.00    0.00   91.56    0.00    0.00    1.97    0.00    0.00    0.01    0.00    0.00     0.00    0.00    0.00    0.00
   21    0.00    0.00    0.44    1.39    0.00    0.00   91.53    0.03    0.05    1.88    0.00    0.00    0.01    0.00    0.00     0.00    0.00    0.00    0.00
   22    0.00    0.00    0.44    1.33    0.00    0.00   91.20    0.33    0.67    1.79    0.00    0.00    0.01    0.00    0.00     0.00    0.00    0.00    0.00
   23   20.80    0.00    0.43    1.26    0.00    0.00   91.07    0.13    0.27    1.72    0.00    0.00    0.01    0.00    0.00     0.00    0.00    0.00    0.00
   24    5.10    0.00    0.43    1.21    0.00    0.00   91.07    0.00    0.00    1.65    0.00    0.00    0.01    0.00    0.00     0.00    0.00    0.00    0.00
   25    0.00    0.00    0.42    1.15    0.00    0.00   91.00    0.07    0.14    1.58    0.00    0.00    0.01    0.00    0.00     0.00    0.00    0.00    0.00
   26    0.00    0.00    0.42    1.09    0.00    0.00   90.94    0.06    0.12    1.52    0.00    0.00    0.01    0.00    0.00     0.00    0.00    0.00    0.00
   27    0.00    0.00    0.42    1.04    0.00    0.00   90.70    0.24    0.48    1.46    0.00    0.00    0.01    0.00    0.00     0.00    0.00    0.00    0.00
   28    0.00    0.00    0.41    0.99    0.00    0.00   90.67    0.03    0.06    1.41    0.00    0.00    0.01    0.00    0.00     0.00    0.00    0.00    0.00
   29    0.00    0.00    0.41    0.95    0.00    0.00   90.41    0.27    0.55    1.36    0.00    0.00    0.01    0.00    0.00     0.00    0.00    0.00    0.00
   30    2.50    0.00    0.40    0.90    0.00    0.00   90.36    0.05    0.09    1.31    0.00    0.00    0.01    0.00    0.00     0.00    0.00    0.00    0.00
   31    0.00    0.00    0.40    0.86    0.00    0.00   90.36    0.32    0.63    1.26    0.00    0.00    0.01    0.00    0.00     0.00    0.00    0.00    0.00
    1  132.01  101.93   12.81   36.23   52.82    0.00   90.36    7.68   13.18  150.65    0.04    0.86    0.33    7.72    0.00     0.39    0.18    0.26    0.00
   32    0.00    0.00    0.40    0.82    0.00    0.00   90.36    0.40    0.80    1.22    0.00    0.00    0.01    0.00    0.00     0.00    0.00    0.00    0.00
   33    0.00    0.00    0.39    0.78    0.00    0.00   90.36    0.02    0.03    1.17    0.00    0.00    0.01    0.00    0.00     0.00    0.00    0.00    0.00
   34    0.00    0.00    0.39    0.74    0.00    0.00   90.36    0.54    1.09    1.13    0.00    0.00    0.01    0.00    0.00     0.00    0.00    0.00    0.00
   35    0.00    0.00    0.38    0.71    0.00    0.00   89.85    0.51    1.06    1.09    0.00    0.00    0.01    0.00    0.00     0.00    0.00    0.00    0.00
   36    0.00    0.00    0.38    0.68    0.00    0.00   89.82    0.03    0.07    1.06    0.00    0.00    0.01    0.00    0.00     0.00    0.00    0.00    0.00
   37    0.00    0.00    0.38    0.64    0.00    0.00   89.46    0.36    0.76    1.02    0.00    0.00    0.01    0.00    0.00     0.00    0.00    0.00    0.00
   38    0.00    0.00    0.37    0.61    0.00    0.00   88.95    0.51    1.10    0.99    0.00    0.00    0.01    0.00    0.00     0.00    0.00    0.00    0.00
   39    0.00    0.00    0.37    0.58    0.00    0.00   88.45    0.50    1.10    0.95    0.00    0.00    0.01    0.00    0.00     0.00    0.00    0.00    0.00
   40    0.00    0.00    0.37    0.56    0.00    0.00   88.45    0.52    1.04    0.92    0.00    0.00    0.01    0.00    0.00     0.00    0.00    0.00    0.00
   41    0.00    0.00    0.36    0.53    0.00    0.00   88.45    0.18    0.36    0.89    0.00    0.00    0.01    0.00    0.00     0.00    0.00    0.00    0.00
   42    0.00    0.00    0.36    0.51    0.00    0.00   88.45    0.87    1.75    0.86    0.00    0.00    0.01    0.00    0.00     0.00    0.00    0.00    0.00
   43   16.80    0.00    0.36    0.48    0.00    0.00   88.45    0.23    0.46    0.84    0.00    0.00    0.01    0.00    0.00     0.00    0.00    0.00    0.00
   44    0.00    0.00    0.35    0.46    0.00    0.00   88.45    0.48    0.96    0.81    0.00    0.00    0.01    0.00    0.00     0.00    0.00    0.00    0.00
   45    0.00    0.00    0.35    0.44    0.00    0.00   88.31    0.13    0.30    0.79    0.00    0.00    0.01    0.00    0.00     0.00    0.00    0.00    0.00
   46    0.00    0.00    0.35    0.42    0.00    0.00   88.17    0.15    0.33    0.76    0.00    0.00    0.01    0.00    0.00     0.00    0.00    0.00    0.00
   47    0.00    0.00    0.34    0.40    0.00    0.00   87.98    0.18    0.42    0.74    0.00    0.00    0.01    0.00    0.00     0.00    0.00    0.00    0.00
   48    2.80    0.00    0.34    0.38    0.00    0.00   87.98    0.00    0.00    0.72    0.00    0.00    0.01    0.00    0.00     0.00    0.00    0.00    0.00
   49   17.80    0.00    0.34    0.36    0.00    0.00   87.98    0.00    0.00    0.70    0.00    0.00    0.01    0.00    0.00     0.00    0.00    0.00    0.00
   50    2.30    1.05    0.33    0.34    0.00    0.00  100.92    0.00    0.00    1.08    0.00    0.01    0.01    0.00    0.00     0.00    0.00    0.00    0.00
   51    0.00    0.00    0.33    0.33    0.00    0.00  100.92    0.32    0.65    0.90    0.00    0.00    0.01    0.00    0.00     0.00    0.00    0.00    0.00
   52    0.00    0.00    0.33    0.31    0.00    0.00  100.92    0.17    0.35    0.77    0.00    0.00    0.01    0.00    0.00     0.00    0.00    0.00    0.00
   53    0.00    0.00    0.32    0.30    0.00    0.00  100.92    0.35    0.70    0.70    0.00    0.00    0.01    0.00    0.00     0.00    0.00    0.00    0.00
   54    1.50    0.00    0.32    0.29    0.00    0.00  100.92    0.00    0.00    0.65    0.00    0.00    0.01    0.00    0.00     0.00    0.00    0.00    0.00
   55   22.40    0.00    0.32    0.27    0.00    0.00  100.92    0.47    0.94    0.62    0.00    0.00    0.01    0.00    0.00     0.00    0.00    0.00    0.00
   56   17.30    0.00    0.31    0.26    0.00    0.00  100.92    0.00    0.00    0.59    0.00    0.00    0.01    0.00    0.00     0.00    0.00    0.00    0.00
   57    0.00    0.00    0.31    0.25    0.00    0.00  100.92    0.40    0.80    0.57    0.00    0.00    0.01    0.00    0.00     0.00    0.00    0.00    0.00
   58    0.00    0.00    0.31    0.24    0.00    0.00  100.34    0.58    1.17    0.55    0.00    0.00    0.01    0.00    0.00     0.00    0.00    0.00    0.00
   59    2.50    0.00    0.30    0.22    0.00    0.00  100.34    0.02    0.04    0.53    0.00    0.00    0.01    0.00    0.00     0.00    0.00    0.00    0.00
    2   83.41    1.05    9.75   12.90    0.00    0.00  100.34    7.94   16.27   23.62    0.01    0.02    0.26    0.00    0.00     0.00    0.00    0.00    0.00
   60    0.00   10.88    0.31    0.27    3.07    0.00  109.89    2.18    4.36    5.57    0.00    0.03    0.01    0.34    0.00     0.03    0.01    0.02    0.00
   61    0.00    0.00    0.32    0.36    3.53    0.00  104.91    1.41    2.82    3.19    0.00    0.01    0.01    0.35    0.00     0.01    0.01    0.01    0.00
   62    0.00    0.00    0.32    0.42    0.66    0.00  103.63    0.61    1.22    2.10    0.00    0.01    0.01    0.10    0.00     0.00    0.00    0.00    0.00
   63    2.30    0.00    0.32    0.44    0.00    0.00  103.63    0.00    0.00    1.54    0.00    0.00    0.01    0.00    0.00     0.00    0.00    0.00    0.00
   64    0.00    0.00    0.32    0.44    0.00    0.00  103.63    0.20    0.39    1.22    0.00    0.00    0.01    0.00    0.00     0.00    0.00    0.00    0.00
   65    0.00    0.00    0.31    0.43    0.00    0.00  103.63    0.68    1.36    1.03    0.00    0.00    0.01    0.00    0.00     0.00    0.00    0.00    0.00
   66    0.00    0.00    0.31    0.42    0.00    0.00  103.63    0.87    1.74    0.90    0.00    0.00    0.01    0.00    0.00     0.00    0.00    0.00    0.00
   67    6.90    0.00    0.31    0.40    0.00    0.00  103.63    0.21    0.41    0.82    0.00    0.00    0.01    0.00    0.00     0.00    0.00    0.00    0.00
   68   18.50    0.00    0.30    0.39    0.00    0.00  103.63    0.00    0.00    0.76    0.00    0.00    0.01    0.00    0.00     0.00    0.00    0.00    0.00
   69    0.00   13.53    0.34    0.53    8.45    0.00  103.63    1.15    2.30    7.10    0.00    0.04    0.01    0.93    0.03     0.04    0.01    0.02    0.00
   70   19.10    0.00    0.33    0.60    0.00    0.00  103.39    0.24    0.48    4.09    0.00    0.02    0.01    0.00    0.00     0.02    0.01    0.01    0.00
   71    1.30    0.00    0.33    0.63    0.00    0.00  103.39    0.00    0.00    2.68    0.00    0.01    0.01    0.00    0.00     0.01    0.00    0.00    0.00
   72    0.00    0.00    0.33    0.63    0.00    0.00  102.91    0.49    0.97    1.94    0.00    0.01    0.01    0.00    0.00     0.00    0.00    0.00    0.00
   73    5.80    0.00    0.32    0.62    0.00    0.00  102.91    0.00    0.00    1.52    0.00    0.00    0.01    0.00    0.00     0.00    0.00    0.00    0.00
   74    0.00    0.00    0.32    0.60    0.00    0.00  102.21    0.69    1.39    1.27    0.00    0.00    0.01    0.00    0.00     0.00    0.00    0.00    0.00
   75    0.00    0.00    0.32    0.57    0.00    0.00  101.89    0.32    0.65    1.11    0.00    0.00    0.01    0.00    0.00     0.00    0.00    0.00    0.00
   76    0.00    0.00    0.31    0.55    0.00    0.00  101.39    0.50    1.00    1.00    0.00    0.00    0.01    0.00    0.00     0.00    0.00    0.00    0.00
   77    5.30    0.00    0.31    0.53    0.00    0.00  101.39    0.00    0.00    0.92    0.00    0.00    0.01    0.00    0.00     0.00    0.00    0.00    0.00
   78    7.10    0.00    0.31    0.50    0.00    0.00  101.39    0.00    0.00    0.87    0.00    0.00    0.01    0.00    0.00     0.00    0.00    0.00    0.00
   79    0.00    1.69    0.30    0.49    0.47    0.00  108.71    0.73    1.46    1.56    0.00    0.01    0.01    0.04    0.00     0.00    0.00    0.00    0.00
   80    2.50    7.93    0.30    0.53    2.80    0.00  113.89    0.35    0.70    4.89    0.00    0.03    0.01    0.26    0.00     0.02    0.01    0.01    0.00
   81   10.70    0.00    0.30    0.54    0.00    0.00  113.65    0.23    0.47    2.89    0.00    0.01    0.01    0.00    0.00     0.01    0.00    0.01    0.00
   82    1.00    0.00    0.30    0.53    0.00    0.00  113.62    0.03    0.07    1.95    0.00    0.01    0.01    0.00    0.00     0.00    0.00    0.00    0.00
   83    0.00    0.00    0.29    0.52    0.00    0.00  113.10    0.52    1.05    1.45    0.00    0.00    0.01    0.00    0.00     0.00    0.00    0.00    0.00
   84    0.00    0.00    0.29    0.50    0.00    0.00  112.95    0.15    0.30    1.17    0.00    0.00    0.01    0.00    0.00     0.00    0.00    0.00    0.00
   85    0.00    0.00    0.29    0.48    0.00    0.00  112.95    0.63    1.27    1.00    0.00    0.00    0.01    0.00    0.00     0.00    0.00    0.00    0.00
   86    0.00   19.15    0.29    0.56    5.09    0.00  114.74    1.12    2.25    9.86    0.00    0.05    0.01    0.48    0.00     0.04    0.02    0.02    0.00
   87    0.00   32.42    0.35    0.84   13.11    0.00  103.62    2.41    4.80   20.66    0.01    0.13    0.01    1.37    0.09     0.08    0.04    0.05    0.00
   88    0.00   13.61    0.48    1.39   21.39    0.00   93.24    2.70    3.65   17.95    0.01    0.13    0.01    1.83    0.15     0.07    0.03    0.04    0.00
   89    0.00    0.00    0.47    1.66    0.00    0.00   89.88    3.36    4.52   10.71    0.00    0.07    0.01    0.00    0.14     0.03    0.02    0.02    0.00
   90    0.00    0.00    0.47    1.78    0.00    0.00   86.66    3.22    4.80    7.09    0.00    0.04    0.01    0.00    0.13     0.01    0.01    0.01    0.00
    3   80.51   99.21   10.18   19.15   58.58    0.00   86.66   25.02   44.42  120.80    0.03    0.63    0.27    5.71    0.53     0.39    0.18    0.24    0.00
   91   20.80    0.01    0.51    1.93    6.50    0.00   94.79    1.12    1.49    5.24    0.00    0.02    0.01    0.34    0.11     0.01    0.00    0.00    0.00
   92    5.60    0.00    0.52    2.02    2.69    0.00   94.49    1.45    1.93    4.20    0.00    0.01    0.01    0.12    0.07     0.00    0.00    0.00    0.00
   93    1.00    0.00    0.52    2.04    0.00    0.00   95.15    0.32    0.43    3.58    0.00    0.01    0.01    0.00    0.07     0.00    0.00    0.00    0.00
   94    0.00    0.00    0.51    2.00    0.00    0.00   92.70    2.45    3.25    3.17    0.00    0.01    0.01    0.00    0.00     0.00    0.00    0.00    0.00
   95    0.00    0.00    0.51    1.94    0.00    0.00   91.02    1.69    2.23    2.87    0.00    0.00    0.01    0.00    0.00     0.00    0.00    0.00    0.00
   96    0.00    0.00    0.50    1.87    0.00    0.00   89.17    1.85    2.56    2.64    0.00    0.00    0.01    0.00    0.00     0.00    0.00    0.00    0.00
   97    0.00    0.00    0.50    1.79    0.00    0.00   86.93    2.23    3.34    2.46    0.00    0.00    0.01    0.00    0.00     0.00    0.00    0.00    0.00
   98    9.10    0.00    0.50    1.73    0.56    0.00   93.56    0.90    1.18    2.32    0.00    0.00    0.01    0.03    0.05     0.00    0.00    0.00    0.00
   99   20.30    0.22    0.57    1.86   10.60    0.00   95.67    0.28    0.36    2.57    0.00    0.00    0.01    1.04    0.00     0.00    0.00    0.00    0.00
  100    1.50    0.00    0.57    1.91    0.74    0.00   95.87    0.07    0.09    2.55    0.00    0.00    0.01    0.05    0.00     0.00    0.00    0.00    0.00
  101    0.00    0.00    0.56    1.90    0.00    0.00   94.17    1.71    2.21    2.52    0.00    0.00    0.01    0.00    0.00     0.00    0.00    0.00    0.00
  102    0.00    0.00    0.56    1.85    0.00    0.00   91.59    2.57    3.35    2.44    0.00    0.00    0.01    0.00    0.00     0.00    0.00    0.00    0.00
  103    0.00    0.00    0.55    1.79    0.00    0.00   88.62    2.97    3.94    2.36    0.00    0.00    0.01    0.00    0.00     0.00    0.00    0.00    0.00
  104    0.00    0.00    0.54    1.72    0.00    0.00   85.91    2.70    4.04    2.28    0.00    0.00    0.01    0.00    0.00     0.00    0.00    0.00    0.00
  105    1.00    0.00    0.54    1.65    0.00    0.00   85.51    1.40    1.91    2.19    0.00    0.00    0.01    0.00    0.09     0.00    0.00    0.00    0.00
  106    1.00    0.00    0.53    1.58    0.00    0.00   86.26    0.25    0.32    2.11    0.00    0.00    0.01    0.00    0.06     0.00    0.00    0.00    0.00
  107    0.00    0.00    0.53    1.50    0.00    0.00   83.01    3.25    4.20    2.04    0.00    0.00    0.01    0.00    0.03     0.00    0.00    0.00    0.00
  108    0.00    0.00    0.52    1.44    0.00    0.00   80.75    2.26    3.93    1.96    0.00    0.00    0.01    0.00    0.13     0.00    0.00    0.00    0.00
  109   21.10    0.00    0.55    1.43    3.21    0.00   94.23    0.72    0.93    1.99    0.00    0.00    0.01    0.36    0.07     0.00    0.00    0.00    0.00
  110   13.50    0.00    0.60    1.54    7.17    0.00   94.60    1.23    1.54    2.13    0.00    0.00    0.01    0.97    0.00     0.00    0.00    0.00    0.00
  111    0.00    0.00    0.59    1.56    0.00    0.00   92.47    2.14    2.71    2.15    0.00    0.00    0.01    0.00    0.00     0.00    0.00    0.00    0.00
  112    0.00    0.00    0.58    1.55    0.00    0.00   90.37    2.09    2.66    2.13    0.00    0.00    0.01    0.00    0.01     0.00    0.00    0.00    0.00
  113    0.00    0.00    0.58    1.51    0.00    0.00   88.07    2.31    3.04    2.08    0.00    0.00    0.01    0.00    0.01     0.00    0.00    0.00    0.00
  114    0.00    0.00    0.57    1.45    0.00    0.00   86.24    1.83    2.65    2.03    0.00    0.00    0.01    0.00    0.09     0.00    0.00    0.00    0.00
  115    0.00    0.00    0.57    1.39    0.00    0.00   82.76    3.48    5.61    1.96    0.00    0.00    0.01    0.00    0.03     0.00    0.00    0.00    0.00
  116   13.20    0.00    0.58    1.34    0.47    0.00   93.46    0.45    0.57    1.92    0.00    0.00    0.01    0.06    0.00     0.00    0.00    0.00    0.00
  117    0.00    0.00    0.57    1.29    0.00    0.00   91.78    1.69    2.10    1.86    0.00    0.00    0.01    0.00    0.00     0.00    0.00    0.00    0.00
  118    0.00    0.00    0.57    1.23    0.00    0.00   89.59    2.19    2.75    1.80    0.00    0.00    0.01    0.00    0.00     0.00    0.00    0.00    0.00
  119    0.00    0.00    0.56    1.18    0.00    0.00   86.82    2.77    3.68    1.74    0.00    0.00    0.01    0.00    0.00     0.00    0.00    0.00    0.00
  120    0.00    0.00    0.55    1.12    0.00    0.00   83.78    3.04    4.53    1.68    0.00    0.00    0.01    0.00    0.20     0.00    0.00    0.00    0.00
    4  108.11    0.23   16.42   49.12   31.93    0.00   83.78   53.41   73.52   72.97    0.04    0.06    0.37    2.96    1.02     0.01    0.01    0.01    0.00
  121    0.00    0.00    0.55    1.07    0.00    0.00   79.63    4.14    7.17    1.62    0.00    0.00    0.01    0.00    0.24     0.00    0.00    0.00    0.00
  122   19.10    0.00    0.57    1.06    2.07    0.00   91.12    2.51    3.11    1.64    0.00    0.00    0.01    0.36    0.13     0.00    0.00    0.00    0.00
  123    0.00    0.00    0.57    1.03    0.00    0.00   87.39    3.73    4.75    1.60    0.00    0.00    0.01    0.00    0.25     0.00    0.00    0.00    0.00
  124    3.60    0.00    0.56    1.00    0.00    0.00   90.17    0.61    0.75    1.56    0.00    0.00    0.01    0.00    0.07     0.00    0.00    0.00    0.00
  125    2.30    0.00    0.56    0.96    0.00    0.00   91.47    0.79    0.97    1.52    0.00    0.00    0.01    0.00    0.12     0.00    0.00    0.00    0.00
  126    3.80    0.00    0.56    0.94    1.10    0.00   92.39    1.02    1.21    1.50    0.00    0.00    0.01    0.19    0.16     0.00    0.00    0.00    0.00
  127    0.80    0.00    0.56    0.91    0.00    0.00   92.08    1.08    1.29    1.47    0.00    0.00    0.01    0.00    0.25     0.00    0.00    0.00    0.00
  128    0.80    0.00    0.55    0.88    0.00    0.00   91.00    1.86    2.18    1.43    0.00    0.00    0.01    0.00    0.07     0.00    0.00    0.00    0.00
  129    7.40    0.00    0.56    0.89    2.57    0.00   93.02    1.06    1.25    1.45    0.00    0.00    0.01    0.48    0.24     0.00    0.00    0.00    0.00
  130   17.50    0.07    0.62    1.05    9.06    0.00   92.85    2.57    2.99    1.69    0.00    0.00    0.02    2.00    0.29     0.00    0.00    0.00    0.00
  131    0.00    0.00    0.61    1.12    0.00    0.00   88.04    4.81    5.64    1.75    0.00    0.00    0.02    0.00    0.52     0.00    0.00    0.00    0.00
  132    0.00    0.00    0.60    1.13    0.00    0.00   84.43    3.60    4.96    1.75    0.00    0.00    0.02    0.00    0.56     0.00    0.00    0.00    0.00
  133    0.00    0.00    0.60    1.12    0.00    0.00   81.73    2.70    4.27    1.72    0.00    0.00    0.01    0.00    0.52     0.00    0.00    0.00    0.00
  134    0.00    0.00    0.59    1.09    0.00    0.00   77.77    3.96    6.90    1.68    0.00    0.00    0.01    0.00    0.33     0.00    0.00    0.00    0.00
  135    0.00    0.00    0.59    1.05    0.00    0.00   75.18    2.59    5.10    1.64    0.00    0.00    0.01    0.00    0.44     0.00    0.00    0.00    0.00
  136    0.00    0.00    0.58    1.01    0.00    0.00   72.77    2.41    4.94    1.59    0.00    0.00    0.01    0.00    0.52     0.00    0.00    0.00    0.00
  137    0.00    0.00    0.58    0.96    0.00    0.00   69.51    3.26    6.89    1.54    0.00    0.00    0.01    0.00    0.49     0.00    0.00    0.00    0.00
  138    0.00    0.00    0.57    0.92    0.00    0.00   67.14    2.37    5.32    1.49    0.00    0.00    0.01    0.00    0.47     0.00    0.00    0.00    0.00
  139    0.00    0.00    0.56    0.88    0.00    0.00   65.26    1.87    4.39    1.44    0.00    0.00    0.01    0.00    0.53     0.00    0.00    0.00    0.00
  140    0.00    0.00    0.56    0.84    0.00    0.00   62.00    3.26    7.89    1.40    0.00    0.00    0.01    0.00    0.51     0.00    0.00    0.00    0.00
  141    0.00    0.00    0.55    0.80    0.00    0.00   59.51    2.50    6.20    1.35    0.00    0.00    0.01    0.00    0.56     0.00    0.00    0.00    0.00
  142    0.00    0.00    0.55    0.76    0.00    0.00   57.15    2.35    6.06    1.31    0.00    0.00    0.01    0.00    0.66     0.00    0.00    0.00    0.00
  143    0.00    0.00    0.54    0.72    0.00    0.00   56.03    1.12    3.05    1.27    0.00    0.00    0.01    0.00    0.37     0.00    0.00    0.00    0.00
  144    0.00    0.00    0.54    0.69    0.00    0.00   54.12    1.91    5.73    1.23    0.00    0.00    0.01    0.00    0.21     0.00    0.00    0.00    0.00
  145    0.00    0.00    0.53    0.66    0.00    0.00   52.67    1.46    4.15    1.19    0.00    0.00    0.01    0.00    0.26     0.00    0.00    0.00    0.00
  146    0.50    0.00    0.53    0.63    0.00    0.00   52.06    1.11    2.39    1.15    0.00    0.00    0.01    0.00    0.29     0.00    0.00    0.00    0.00
  147    0.00    0.00    0.52    0.60    0.00    0.00   49.16    2.90    7.80    1.12    0.00    0.00    0.01    0.00    0.35     0.00    0.00    0.00    0.00
  148    0.00    0.00    0.52    0.57    0.00    0.00   46.53    2.63    7.69    1.09    0.00    0.00    0.01    0.00    0.56     0.00    0.00    0.00    0.00
  149    7.40    0.00    0.52    0.54    0.00    0.00   52.18    1.16    1.57    1.06    0.00    0.00    0.01    0.00    0.47     0.00    0.00    0.00    0.00
  150    0.00    0.00    0.51    0.52    0.00    0.00   48.93    3.25    5.99    1.03    0.00    0.00    0.01    0.00    0.43     0.00    0.00    0.00    0.00
  151   55.91    0.02    0.60    0.62    6.49    0.00   87.85    0.61    0.66    1.23    0.01    0.00    0.01    1.20    0.28     0.00    0.00    0.00    0.00
    5  119.11    0.09   17.44   27.00   21.29    0.00   87.85   71.22  133.26   44.50    0.03    0.00    0.43    4.22   11.12     0.00    0.00    0.00    0.00
  152   14.00    0.01    0.64    0.78    6.13    0.00   89.56    1.84    2.00    1.42    0.00    0.00    0.01    0.90    0.58     0.00    0.00    0.00    0.00
  153    0.00    0.00    0.63    0.85    0.00    0.00   85.52    4.04    4.51    1.48    0.00    0.00    0.01    0.00    0.53     0.00    0.00    0.00    0.00
  154    8.40    0.00    0.64    0.89    1.27    0.00   90.35    1.01    1.10    1.53    0.00    0.00    0.01    0.13    0.25     0.00    0.00    0.00    0.00
  155    0.00    0.00    0.63    0.90    0.00    0.00   86.45    3.89    4.28    1.54    0.00    0.00    0.01    0.00    0.22     0.00    0.00    0.00    0.00
  156    0.00    0.00    0.63    0.89    0.00    0.00   82.67    3.79    4.35    1.52    0.00    0.00    0.01    0.00    0.02     0.00    0.00    0.00    0.00
  157    0.00    0.00    0.62    0.86    0.00    0.00   79.22    3.45    4.30    1.48    0.00    0.00    0.01    0.00    0.11     0.00    0.00    0.00    0.00
  158    1.00    0.00    0.62    0.83    0.00    0.00   79.62    0.60    0.77    1.45    0.00    0.00    0.01    0.00    0.53     0.00    0.00    0.00    0.00
  159    0.80    0.00    0.61    0.80    0.00    0.00   79.22    1.19    1.26    1.41    0.00    0.00    0.01    0.00    0.22     0.00    0.00    0.00    0.00
  160    0.00    0.00    0.60    0.76    0.00    0.00   75.36    3.87    4.57    1.37    0.00    0.00    0.01    0.00    0.25     0.00    0.00    0.00    0.00
  161    0.00    0.00    0.60    0.73    0.00    0.00   72.10    3.25    4.83    1.33    0.00    0.00    0.01    0.00    0.63     0.00    0.00    0.00    0.00
  162    1.00    0.00    0.59    0.69    0.00    0.00   72.18    0.92    1.35    1.29    0.00    0.00    0.01    0.00    0.47     0.00    0.00    0.00    0.00
  163    9.40    0.00    0.59    0.66    0.00    0.00   79.05    1.66    1.72    1.26    0.00    0.00    0.01    0.00    0.28     0.00    0.00    0.00    0.00
  164   22.60    0.01    0.64    0.73    5.12    0.00   89.50    2.03    2.09    1.37    0.00    0.00    0.01    0.38    0.73     0.00    0.00    0.00    0.00
  165   34.50    2.72    0.74    1.07   16.47    0.00   92.50    1.30    1.33    2.99    0.01    0.01    0.01    0.96    0.38     0.02    0.00    0.01    0.00
  166    7.90    0.00    0.75    1.30    3.75    0.00   93.50    0.69    0.71    2.66    0.00    0.00    0.01    0.11    0.28     0.01    0.00    0.00    0.00
  167    3.60    0.00    0.76    1.44    1.65    0.00   93.30    1.05    1.08    2.52    0.00    0.00    0.01    0.04    0.19     0.00    0.00    0.00    0.00
  168   11.70    0.00    0.79    1.60    6.21    0.00   93.83    0.89    0.91    2.57    0.00    0.00    0.01    0.20    0.17     0.00    0.00    0.00    0.00
  169   14.00    0.00    0.83    1.81    7.66    0.00   92.80    2.27    2.32    2.74    0.00    0.00    0.02    0.23    0.26     0.00    0.00    0.00    0.00
  170    0.00    0.00    0.82    1.88    0.00    0.00   86.27    6.53    6.68    2.78    0.00    0.00    0.01    0.00    0.29     0.00    0.00    0.00    0.00
  171    0.00    0.00    0.82    1.88    0.00    0.00   78.87    7.40    8.61    2.75    0.00    0.00    0.01    0.00    0.23     0.00    0.00    0.00    0.00
  172    0.00    0.00    0.81    1.85    0.00    0.00   74.74    4.13    5.49    2.68    0.00    0.00    0.01    0.00    0.25     0.00    0.00    0.00    0.00
  173    1.50    0.00    0.80    1.79    0.00    0.00   73.36    2.88    3.04    2.59    0.00    0.00    0.01    0.00    0.16     0.00    0.00    0.00    0.00
  174    4.80    0.00    0.80    1.72    0.00    0.00   75.23    2.51    2.59    2.52    0.00    0.00    0.01    0.00    0.22     0.00    0.00    0.00    0.00
  175   16.00    0.00    0.80    1.65    0.00    0.00   85.73    3.80    3.86    2.46    0.00    0.00    0.01    0.00    0.23     0.00    0.00    0.00    0.00
  176    0.00    0.00    0.80    1.58    0.00    0.00   79.17    6.56    6.99    2.38    0.00    0.00    0.01    0.00    0.33     0.00    0.00    0.00    0.00
  177    3.00    0.00    0.79    1.51    0.00    0.00   80.89    1.14    1.15    2.30    0.00    0.00    0.01    0.00    0.16     0.00    0.00    0.00    0.00
  178    4.80    0.00    0.79    1.44    0.00    0.00   83.63    1.60    1.61    2.23    0.00    0.00    0.01    0.00    0.23     0.00    0.00    0.00    0.00
  179    0.00    0.00    0.78    1.37    0.00    0.00   78.41    5.22    5.36    2.15    0.00    0.00    0.01    0.00    0.21     0.00    0.00    0.00    0.00
  180    5.30    0.00    0.78    1.31    0.00    0.00   82.31    0.99    0.99    2.08    0.00    0.00    0.01    0.00    0.20     0.00    0.00    0.00    0.00
  181   24.40    0.08    0.83    1.37    6.51    0.00   91.66    2.41    2.41    2.23    0.00    0.00    0.01    0.19    0.25     0.00    0.00    0.00    0.00
    6  188.72    2.81   21.52   36.94   54.78    0.00   91.66   82.91   92.29   61.04    0.05    0.02    0.43    3.16    8.86     0.03    0.01    0.01    0.00
  182    6.60    0.00    0.83    1.42    2.34    0.00   92.27    2.04    2.04    2.27    0.00    0.00    0.01    0.05    0.36     0.00    0.00    0.00    0.00
  183    3.00    0.00    0.83    1.43    0.50    0.00   91.59    2.73    2.75    2.27    0.00    0.00    0.01    0.01    0.29     0.00    0.00    0.00    0.00
  184    0.00    0.00    0.82    1.41    0.00    0.00   86.80    4.80    4.81    2.24    0.00    0.00    0.01    0.00    0.23     0.00    0.00    0.00    0.00
  185   15.00    0.00    0.85    1.44    3.98    0.00   91.45    3.06    3.10    2.29    0.00    0.00    0.01    0.07    0.36     0.00    0.00    0.00    0.00
  186    4.10    0.00    0.84    1.44    0.51    0.00   92.75    1.76    1.78    2.29    0.00    0.00    0.01    0.01    0.36     0.00    0.00    0.00    0.00
  187    0.00    0.00    0.84    1.41    0.00    0.00   85.99    6.77    6.77    2.25    0.00    0.00    0.01    0.00    0.23     0.00    0.00    0.00    0.00
  188    3.00    0.00    0.83    1.37    0.00    0.00   85.90    2.94    2.94    2.20    0.00    0.00    0.01    0.00    0.23     0.00    0.00    0.00    0.00
  189   31.80    0.55    0.91    1.56   12.68    0.00   92.73    2.48    2.48    2.70    0.01    0.00    0.01    0.40    0.27     0.00    0.00    0.00    0.00
  190    0.00    0.00    0.90    1.64    0.00    0.00   87.44    5.29    5.29    2.66    0.00    0.00    0.01    0.00    0.42     0.00    0.00    0.00    0.00
  191    1.50    0.00    0.89    1.64    0.00    0.00   86.08    2.84    2.88    2.59    0.00    0.00    0.01    0.00    0.26     0.00    0.00    0.00    0.00
  192    0.00    0.00    0.88    1.61    0.00    0.00   81.59    4.49    4.77    2.54    0.00    0.00    0.01    0.00    0.27     0.00    0.00    0.00    0.00
  193    0.00    0.00    0.88    1.56    0.00    0.00   77.15    4.43    5.00    2.46    0.00    0.00    0.01    0.00    0.25     0.00    0.00    0.00    0.00
  194    0.00    0.00    0.87    1.51    0.00    0.00   72.34    4.81    5.74    2.39    0.00    0.00    0.01    0.00    0.24     0.00    0.00    0.00    0.00
  195    0.00    0.00    0.86    1.44    0.00    0.00   68.18    4.16    5.20    2.31    0.00    0.00    0.01    0.00    0.24     0.00    0.00    0.00    0.00
  196    0.00    0.00    0.85    1.38    0.00    0.00   63.39    4.79    5.88    2.24    0.00    0.00    0.01    0.00    0.24     0.00    0.00    0.00    0.00
  197    9.70    0.00    0.85    1.32    0.00    0.00   67.77    4.50    4.57    2.17    0.00    0.00    0.01    0.00    0.22     0.00    0.00    0.00    0.00
  198    0.00    0.00    0.84    1.26    0.00    0.00   62.73    5.04    5.93    2.10    0.00    0.00    0.01    0.00    0.34     0.00    0.00    0.00    0.00
  199    0.00    0.00    0.83    1.20    0.00    0.00   57.15    5.58    7.00    2.04    0.00    0.00    0.01    0.00    0.23     0.00    0.00    0.00    0.00
  200    0.00    0.00    0.83    1.14    0.00    0.00   53.77    3.38    4.67    1.97    0.00    0.00    0.01    0.00    0.22     0.00    0.00    0.00    0.00
  201    9.40    0.00    0.83    1.09    0.00    0.00   60.75    1.63    1.84    1.92    0.00    0.00    0.01    0.00    0.24     0.00    0.00    0.00    0.00
  202    0.00    0.00    0.82    1.04    0.00    0.00   56.51    4.25    4.77    1.86    0.00    0.00    0.01    0.00    0.33     0.00    0.00    0.00    0.00
  203    0.00    0.00    0.81    0.99    0.00    0.00   52.10    4.41    5.74    1.80    0.00    0.00    0.01    0.00    0.28     0.00    0.00    0.00    0.00
  204    2.50    0.00    0.80    0.94    0.00    0.00   53.01    1.50    1.61    1.75    0.00    0.00    0.01    0.00    0.24     0.00    0.00    0.00    0.00
  205    0.00    0.00    0.80    0.90    0.00    0.00   49.56    3.45    4.09    1.69    0.00    0.00    0.01    0.00    0.21     0.00    0.00    0.00    0.00
  206    0.00    0.00    0.79    0.86    0.00    0.00   44.83    4.73    6.06    1.64    0.00    0.00    0.01    0.00    0.26     0.00    0.00    0.00    0.00
  207    0.00    0.00    0.78    0.82    0.00    0.00   41.44    3.40    4.30    1.60    0.00    0.00    0.01    0.00    0.22     0.00    0.00    0.00    0.00
  208    0.00    0.00    0.77    0.78    0.00    0.00   37.06    4.38    5.95    1.55    0.00    0.00    0.01    0.00    0.21     0.00    0.00    0.00    0.00
  209    0.00    0.00    0.77    0.74    0.00    0.00   33.57    3.49    5.01    1.51    0.00    0.00    0.01    0.00    0.20     0.00    0.00    0.00    0.00
  210    0.00    0.00    0.76    0.71    0.00    0.00   29.49    4.08    5.95    1.46    0.00    0.00    0.01    0.00    0.22     0.00    0.00    0.00    0.00
  211    0.00    0.00    0.75    0.67    0.00    0.00   25.90    3.59    5.03    1.42    0.00    0.00    0.01    0.00    0.23     0.00    0.00    0.00    0.00
  212    0.00    0.00    0.74    0.64    0.00    0.00   22.61    3.29    4.91    1.38    0.00    0.00    0.01    0.00    0.21     0.00    0.00    0.00    0.00
    7   86.61    0.55   25.65   37.38   20.01    0.00   22.61  118.06  138.85   63.57    0.03    0.00    0.42    0.54    8.12     0.01    0.00    0.00    0.00
  213    0.00    0.00    0.74    0.61    0.00    0.00   20.11    2.50    3.17    1.35    0.00    0.00    0.01    0.00    0.22     0.00    0.00    0.00    0.00
  214    0.00    0.00    0.73    0.58    0.00    0.00   18.11    2.00    3.36    1.31    0.00    0.00    0.01    0.00    0.16     0.00    0.00    0.00    0.00
  215    0.00    0.00    0.72    0.55    0.00    0.00   15.01    3.10    4.73    1.28    0.00    0.00    0.01    0.00    0.18     0.00    0.00    0.00    0.00
  216    0.00    0.00    0.71    0.53    0.00    0.00   12.88    2.12    3.90    1.24    0.00    0.00    0.01    0.00    0.19     0.00    0.00    0.00    0.00
  217    0.00    0.00    0.71    0.50    0.00    0.00   10.15    2.73    4.80    1.21    0.00    0.00    0.01    0.00    0.20     0.00    0.00    0.00    0.00
  218    0.00    0.00    0.70    0.48    0.00    0.00    8.00    2.15    5.10    1.18    0.00    0.00    0.01    0.00    0.17     0.00    0.00    0.00    0.00
  219    0.00    0.00    0.69    0.46    0.00    0.00    5.89    2.11    4.77    1.15    0.00    0.00    0.01    0.00    0.16     0.00    0.00    0.00    0.00
  220    0.00    0.00    0.69    0.44    0.00    0.00    3.89    2.00    4.47    1.12    0.00    0.00    0.01    0.00    0.14     0.00    0.00    0.00    0.00
  221    0.00    0.00    0.68    0.42    0.00    0.00    1.78    2.11    6.67    1.10    0.00    0.00    0.01    0.00    0.12     0.00    0.00    0.00    0.00
  222    1.50    0.00    0.67    0.40    0.00    0.00    2.90    0.39    1.20    1.07    0.00    0.00    0.01    0.00    0.11     0.00    0.00    0.00    0.00
  223   11.90    0.00    0.68    0.38    0.00    0.00   12.62    1.02    1.41    1.06    0.00    0.00    0.01    0.00    0.15     0.00    0.00    0.00    0.00
  224    0.00    0.00    0.67    0.36    0.00    0.00   10.08    2.54    3.89    1.03    0.00    0.00    0.01    0.00    0.32     0.00    0.00    0.00    0.00
  225    0.00    0.00    0.67    0.34    0.00    0.00    7.46    2.62    4.51    1.01    0.00    0.00    0.01    0.00    0.17     0.00    0.00    0.00    0.00
  226    4.60    0.00    0.66    0.33    0.00    0.00    9.76    1.97    2.75    0.99    0.00    0.00    0.01    0.00    0.16     0.00    0.00    0.00    0.00
  227    0.00    0.00    0.66    0.31    0.00    0.00    6.56    3.20    5.11    0.97    0.00    0.00    0.01    0.00    0.20     0.00    0.00    0.00    0.00
  228    0.00    0.00    0.65    0.30    0.00    0.00    4.35    2.21    4.28    0.95    0.00    0.00    0.01    0.00    0.16     0.00    0.00    0.00    0.00
  229    2.30    0.00    0.64    0.28    0.00    0.00    4.93    1.64    2.46    0.93    0.00    0.00    0.01    0.00    0.15     0.00    0.00    0.00    0.00
  230    5.10    0.00    0.64    0.27    0.00    0.00    7.20    2.37    3.48    0.91    0.00    0.00    0.01    0.00    0.17     0.00    0.00    0.00    0.00
  231    0.00    0.00    0.64    0.26    0.00    0.00    5.45    1.75    3.43    0.89    0.00    0.00    0.01    0.00    0.21     0.00    0.00    0.00    0.00
  232    0.00    0.00    0.63    0.24    0.00    0.00    4.31    1.14    2.86    0.87    0.00    0.00    0.01    0.00    0.10     0.00    0.00    0.00    0.00
  233    0.00    0.00    0.62    0.23    0.00    0.00    3.02    1.29    3.68    0.86    0.00    0.00    0.01    0.00    0.10     0.00    0.00    0.00    0.00
  234    0.00    0.00    0.62    0.22    0.00    0.00    1.82    1.21    4.01    0.84    0.00    0.00    0.01    0.00    0.09     0.00    0.00    0.00    0.00
  235    0.00    0.00    0.61    0.21    0.00    0.00    1.21    0.61    4.30    0.82    0.00    0.00    0.01    0.00    0.08     0.00    0.00    0.00    0.00
  236    4.60    0.00    0.61    0.20    0.00    0.00    4.70    0.81    1.49    0.81    0.00    0.00    0.01    0.00    0.07     0.00    0.00    0.00    0.00
  237    0.00    0.00    0.60    0.19    0.00    0.00    2.23    2.46    6.50    0.79    0.00    0.00    0.01    0.00    0.15     0.00    0.00    0.00    0.00
  238    0.00    0.00    0.60    0.18    0.00    0.00    1.64    0.60    4.71    0.78    0.00    0.00    0.01    0.00    0.08     0.00    0.00    0.00    0.00
  239    0.00    0.00    0.59    0.17    0.00    0.00    1.14    0.50    6.49    0.77    0.00    0.00    0.01    0.00    0.07     0.00    0.00    0.00    0.00
  240    0.00    0.00    0.59    0.17    0.00    0.00    0.95    0.19    4.27    0.75    0.00    0.00    0.01    0.00    0.07     0.00    0.00    0.00    0.00
  241    0.80    0.00    0.58    0.16    0.00    0.00    1.44    0.31    2.22    0.74    0.00    0.00    0.01    0.00    0.07     0.00    0.00    0.00    0.00
  242    0.00    0.00    0.57    0.15    0.00    0.00    0.92    0.52    4.54    0.73    0.00    0.00    0.01    0.00    0.10     0.00    0.00    0.00    0.00
  243    3.00    0.00    0.57    0.14    0.00    0.00    3.15    0.61    1.19    0.71    0.00    0.00    0.01    0.00    0.08     0.00    0.00    0.00    0.00
    8   33.80    0.00   20.15   10.06    0.00    0.00    3.15   50.77  119.75   30.22    0.01    0.00    0.32    0.00    4.39     0.00    0.00    0.00    0.00
  244    0.00    0.00    0.57    0.14    0.00    0.00    1.90    1.25    3.14    0.70    0.00    0.00    0.01    0.00    0.13     0.00    0.00    0.00    0.00
  245   10.20    0.00    0.57    0.13    0.00    0.00   10.50    0.66    1.18    0.70    0.00    0.00    0.01    0.00    0.08     0.00    0.00    0.00    0.00
  246    0.00    0.00    0.56    0.12    0.00    0.00    8.50    2.00    4.19    0.69    0.00    0.00    0.01    0.00    0.21     0.00    0.00    0.00    0.00
  247    0.00    0.00    0.56    0.12    0.00    0.00    7.40    1.10    2.94    0.68    0.00    0.00    0.01    0.00    0.10     0.00    0.00    0.00    0.00
  248    0.00    0.00    0.55    0.11    0.00    0.00    5.67    1.73    5.27    0.67    0.00    0.00    0.01    0.00    0.09     0.00    0.00    0.00    0.00
  249    0.00    0.00    0.55    0.11    0.00    0.00    4.62    1.05    3.73    0.65    0.00    0.00    0.01    0.00    0.08     0.00    0.00    0.00    0.00
  250   23.60    0.00    0.57    0.10    0.00    0.00   24.71    1.05    1.20    0.67    0.00    0.00    0.01    0.00    0.08     0.00    0.00    0.00    0.00
  251    5.10    0.00    0.57    0.10    0.00    0.00   28.46    0.56    0.66    0.67    0.00    0.00    0.01    0.00    0.38     0.00    0.00    0.00    0.00
  252    0.00    0.00    0.56    0.09    0.00    0.00   26.46    2.01    2.48    0.66    0.00    0.00    0.01    0.00    0.16     0.00    0.00    0.00    0.00
  253    0.00    0.00    0.56    0.09    0.00    0.00   24.92    1.54    2.23    0.65    0.00    0.00    0.01    0.00    0.10     0.00    0.00    0.00    0.00
  254    0.00    0.00    0.55    0.08    0.00    0.00   23.56    1.36    2.27    0.64    0.00    0.00    0.01    0.00    0.10     0.00    0.00    0.00    0.00
  255    0.00    0.00    0.55    0.08    0.00    0.00   21.96    1.60    2.82    0.63    0.00    0.00    0.01    0.00    0.10     0.00    0.00    0.00    0.00
  256    0.00    0.00    0.54    0.08    0.00    0.00   19.72    2.24    4.38    0.62    0.00    0.00    0.01    0.00    0.10     0.00    0.00    0.00    0.00
  257    0.00    0.00    0.54    0.07    0.00    0.00   18.34    1.38    3.00    0.61    0.00    0.00    0.01    0.00    0.09     0.00    0.00    0.00    0.00
  258    0.00    0.00    0.53    0.07    0.00    0.00   17.13    1.21    3.53    0.60    0.00    0.00    0.01    0.00    0.03     0.00    0.00    0.00    0.00
  259    4.10    0.00    0.53    0.07    0.00    0.00   19.72    1.25    1.79    0.59    0.00    0.00    0.01    0.00    0.03     0.00    0.00    0.00    0.00
  260    0.00    0.00    0.52    0.06    0.00    0.00   18.39    1.33    2.80    0.59    0.00    0.00    0.01    0.00    0.07     0.00    0.00    0.00    0.00
  261    0.00    0.00    0.52    0.06    0.00    0.00   16.74    1.65    4.11    0.58    0.00    0.00    0.01    0.00    0.04     0.00    0.00    0.00    0.00
  262    0.00    0.00    0.51    0.06    0.00    0.00   15.91    0.83    2.44    0.57    0.00    0.00    0.01    0.00    0.04     0.00    0.00    0.00    0.00
  263    0.00    0.00    0.51    0.05    0.00    0.00   14.96    0.95    3.13    0.56    0.00    0.00    0.01    0.00    0.03     0.00    0.00    0.00    0.00
  264    0.00    0.00    0.50    0.05    0.00    0.00   13.86    1.10    3.74    0.55    0.00    0.00    0.01    0.00    0.03     0.00    0.00    0.00    0.00
  265    2.80    0.00    0.50    0.05    0.00    0.00   15.56    0.98    1.56    0.55    0.00    0.00    0.01    0.00    0.03     0.00    0.00    0.00    0.00
  266    0.00    0.00    0.49    0.05    0.00    0.00   14.49    1.08    2.62    0.54    0.00    0.00    0.01    0.00    0.05     0.00    0.00    0.00    0.00
  267    0.00    0.00    0.49    0.05    0.00    0.00   13.51    0.98    2.91    0.53    0.00    0.00    0.01    0.00    0.00     0.00    0.00    0.00    0.00
  268    0.00    0.00    0.48    0.04    0.00    0.00   12.63    0.88    3.16    0.53    0.00    0.00    0.01    0.00    0.07     0.00    0.00    0.00    0.00
  269    0.00    0.00    0.48    0.04    0.00    0.00   11.71    0.92    4.15    0.52    0.00    0.00    0.01    0.00    0.03     0.00    0.00    0.00    0.00
  270    5.30    0.00    0.48    0.04    0.00    0.00   16.15    0.48    0.76    0.52    0.00    0.00    0.01    0.00    0.02     0.00    0.00    0.00    0.00
  271    0.00    0.00    0.47    0.04    0.00    0.00   14.00    2.15    4.43    0.51    0.00    0.00    0.01    0.00    0.05     0.00    0.00    0.00    0.00
  272    0.00    0.00    0.47    0.04    0.00    0.00   13.35    0.65    2.07    0.51    0.00    0.00    0.01    0.00    0.03     0.00    0.00    0.00    0.00
  273    1.50    0.00    0.47    0.03    0.00    0.00   14.60    0.24    0.42    0.50    0.00    0.00    0.01    0.00    0.03     0.00    0.00    0.00    0.00
    9   52.61    0.00   15.74    2.22    0.00    0.00   14.60   36.21   83.10   17.96    0.00    0.00    0.24    0.00    2.37     0.00    0.00    0.00    0.00
  274    2.80    0.00    0.46    0.03    0.00    0.00   17.00    0.13    0.20    0.50    0.00    0.00    0.01    0.00    0.04     0.00    0.00    0.00    0.00
  275    0.00    0.00    0.46    0.03    0.00    0.00   15.34    1.65    2.67    0.49    0.00    0.00    0.01    0.00    0.04     0.00    0.00    0.00    0.00
  276    0.00    0.00    0.45    0.03    0.00    0.00   14.82    0.53    1.47    0.48    0.00    0.00    0.01    0.00    0.03     0.00    0.00    0.00    0.00
  277    0.00    0.00    0.45    0.03    0.00    0.00   13.86    0.96    2.83    0.48    0.00    0.00    0.01    0.00    0.00     0.00    0.00    0.00    0.00
  278    0.00    0.00    0.45    0.03    0.00    0.00   13.22    0.64    2.27    0.47    0.00    0.00    0.01    0.00    0.05     0.00    0.00    0.00    0.00
  279    0.00    0.00    0.44    0.03    0.00    0.00   12.65    0.57    2.45    0.47    0.00    0.00    0.01    0.00    0.02     0.00    0.00    0.00    0.00
  280    0.00    0.00    0.44    0.02    0.00    0.00   12.39    0.26    1.28    0.46    0.00    0.00    0.01    0.00    0.02     0.00    0.00    0.00    0.00
  281   35.30    0.00    0.48    0.02    0.00    0.00   42.23    0.43    0.50    0.50    0.00    0.00    0.01    0.00    0.02     0.00    0.00    0.00    0.00
  282   26.40    0.00    0.53    0.02    0.00    0.00   63.30    0.28    0.32    0.55    0.00    0.00    0.01    0.00    0.10     0.00    0.00    0.00    0.00
  283   10.70    0.00    0.54    0.02    0.00    0.00   70.98    0.52    0.62    0.57    0.00    0.00    0.01    0.00    0.21     0.00    0.00    0.00    0.00
  284    1.50    0.00    0.54    0.02    0.00    0.00   71.72    0.45    0.53    0.56    0.00    0.00    0.01    0.00    0.08     0.00    0.00    0.00    0.00
  285    0.00    0.00    0.54    0.02    0.00    0.00   70.21    1.51    1.78    0.56    0.00    0.00    0.01    0.00    0.04     0.00    0.00    0.00    0.00
  286    0.00    0.00    0.53    0.02    0.00    0.00   68.70    1.50    1.85    0.55    0.00    0.00    0.01    0.00    0.03     0.00    0.00    0.00    0.00
  287   11.70    0.00    0.55    0.02    0.19    0.00   76.83    0.65    0.76    0.57    0.00    0.00    0.01    0.03    0.03     0.00    0.00    0.00    0.00
  288    0.00    0.00    0.55    0.02    0.00    0.00   74.54    2.30    2.71    0.57    0.00    0.00    0.01    0.00    0.08     0.00    0.00    0.00    0.00
  289    0.00    0.00    0.54    0.02    0.00    0.00   72.69    1.85    2.30    0.56    0.00    0.00    0.01    0.00    0.03     0.00    0.00    0.00    0.00
  290    0.00    0.00    0.54    0.02    0.00    0.00   70.99    1.70    2.24    0.56    0.00    0.00    0.01    0.00    0.03     0.00    0.00    0.00    0.00
  291    0.00    0.00    0.53    0.02    0.00    0.00   68.89    2.10    2.91    0.55    0.00    0.00    0.01    0.00    0.03     0.00    0.00    0.00    0.00
  292    2.80    0.00    0.53    0.02    0.00    0.00   70.71    0.86    1.00    0.55    0.00    0.00    0.01    0.00    0.03     0.00    0.00    0.00    0.00
  293    0.00    0.00    0.52    0.02    0.00    0.00   69.45    1.26    1.56    0.54    0.00    0.00    0.01    0.00    0.04     0.00    0.00    0.00    0.00
  294    1.00    0.00    0.52    0.02    0.00    0.00   70.18    0.24    0.29    0.54    0.00    0.00    0.01    0.00    0.03     0.00    0.00    0.00    0.00
  295    0.00    0.00    0.51    0.02    0.00    0.00   69.27    0.91    1.04    0.53    0.00    0.00    0.01    0.00    0.00     0.00    0.00    0.00    0.00
  296    0.00    0.00    0.51    0.02    0.00    0.00   67.16    2.11    2.70    0.53    0.00    0.00    0.01    0.00    0.00     0.00    0.00    0.00    0.00
  297    0.00    0.00    0.50    0.02    0.00    0.00   65.50    1.66    2.41    0.52    0.00    0.00    0.01    0.00    0.10     0.00    0.00    0.00    0.00
  298    0.00    0.00    0.50    0.02    0.00    0.00   64.40    1.10    1.74    0.51    0.00    0.00    0.01    0.00    0.03     0.00    0.00    0.00    0.00
  299    0.00    0.00    0.49    0.01    0.00    0.00   62.62    1.78    2.97    0.51    0.00    0.00    0.01    0.00    0.03     0.00    0.00    0.00    0.00
  300    0.00    0.00    0.49    0.01    0.00    0.00   61.47    1.16    2.00    0.50    0.00    0.00    0.01    0.00    0.03     0.00    0.00    0.00    0.00
  301    5.30    0.00    0.49    0.01    0.00    0.00   65.75    0.64    0.74    0.50    0.00    0.00    0.01    0.00    0.03     0.00    0.00    0.00    0.00
  302    0.00    0.00    0.48    0.01    0.00    0.00   64.51    1.23    1.54    0.50    0.00    0.00    0.01    0.00    0.05     0.00    0.00    0.00    0.00
  303    0.00    0.00    0.48    0.01    0.00    0.00   63.42    1.09    1.55    0.49    0.00    0.00    0.01    0.00    0.00     0.00    0.00    0.00    0.00
  304    0.00    0.00    0.47    0.01    0.00    0.00   62.66    0.76    1.18    0.49    0.00    0.00    0.01    0.00    0.00     0.00    0.00    0.00    0.00
   10   97.51    0.00   15.53    0.63    0.19    0.00   62.66   32.82   50.40   16.16    0.01    0.00    0.25    0.03    1.26     0.00    0.00    0.00    0.00
  305    0.00    0.00    0.47    0.01    0.00    0.00   61.60    1.06    1.70    0.48    0.00    0.00    0.01    0.00    0.00     0.00    0.00    0.00    0.00
  306    0.00    0.00    0.47    0.01    0.00    0.00   60.18    1.42    2.38    0.48    0.00    0.00    0.01    0.00    0.12     0.00    0.00    0.00    0.00
  307    0.00    0.00    0.46    0.01    0.00    0.00   59.23    0.95    1.71    0.47    0.00    0.00    0.01    0.00    0.00     0.00    0.00    0.00    0.00
  308    0.00    0.00    0.46    0.01    0.00    0.00   59.02    0.21    0.39    0.47    0.00    0.00    0.01    0.00    0.00     0.00    0.00    0.00    0.00
  309    0.00    0.00    0.45    0.01    0.00    0.00   58.26    0.76    1.40    0.46    0.00    0.00    0.01    0.00    0.00     0.00    0.00    0.00    0.00
  310    0.00    0.00    0.45    0.01    0.00    0.00   57.66    0.59    1.10    0.46    0.00    0.00    0.01    0.00    0.10     0.00    0.00    0.00    0.00
  311    5.60    0.00    0.44    0.01    0.00    0.00   57.66    0.00    0.00    0.45    0.00    0.00    0.01    0.00    0.00     0.00    0.00    0.00    0.00
  312    0.00    0.00    0.44    0.01    0.00    0.00   57.66    0.53    1.05    0.45    0.00    0.00    0.01    0.00    0.00     0.00    0.00    0.00    0.00
  313    0.00    0.00    0.43    0.01    0.00    0.00   57.66    0.36    0.71    0.44    0.00    0.00    0.01    0.00    0.00     0.00    0.00    0.00    0.00
  314    2.80    0.00    0.43    0.01    0.00    0.00   57.66    0.00    0.00    0.44    0.00    0.00    0.01    0.00    0.00     0.00    0.00    0.00    0.00
  315    9.70    0.00    0.45    0.01    0.00    0.00   72.36    0.53    0.69    0.45    0.00    0.00    0.01    0.00    0.00     0.00    0.00    0.00    0.00
  316    0.00    0.00    0.44    0.01    0.00    0.00   71.16    1.19    1.58    0.45    0.00    0.00    0.01    0.00    0.00     0.00    0.00    0.00    0.00
  317    0.00    0.00    0.44    0.01    0.00    0.00   69.39    1.77    2.47    0.44    0.00    0.00    0.01    0.00    0.00     0.00    0.00    0.00    0.00
  318    0.00    0.00    0.43    0.01    0.00    0.00   68.65    0.75    1.16    0.44    0.00    0.00    0.01    0.00    0.00     0.00    0.00    0.00    0.00
  319    0.00    0.00    0.43    0.01    0.00    0.00   67.77    0.87    1.40    0.43    0.00    0.00    0.01    0.00    0.00     0.00    0.00    0.00    0.00
  320    0.80    0.00    0.42    0.01    0.00    0.00   67.77    0.07    0.13    0.43    0.00    0.00    0.01    0.00    0.00     0.00    0.00    0.00    0.00
  321    0.00    0.00    0.42    0.01    0.00    0.00   67.77    0.22    0.45    0.43    0.00    0.00    0.01    0.00    0.00     0.00    0.00    0.00    0.00
  322    0.00    0.00    0.42    0.00    0.00    0.00   67.77    0.08    0.17    0.42    0.00    0.00    0.01    0.00    0.00     0.00    0.00    0.00    0.00
  323    0.00    0.00    0.41    0.00    0.00    0.00   67.58    0.61    0.88    0.42    0.00    0.00    0.01    0.00    0.00     0.00    0.00    0.00    0.00
  324   14.00    0.00    0.43    0.02    1.06    0.00   77.59    0.39    0.50    0.46    0.00    0.00    0.01    0.23    0.00     0.00    0.00    0.00    0.00
  325    0.00    0.00    0.43    0.04    0.00    0.00   75.39    2.20    2.83    0.46    0.00    0.00    0.01    0.00    0.00     0.00    0.00    0.00    0.00
  326    0.00    0.00    0.42    0.04    0.00    0.00   74.33    1.06    1.49    0.46    0.00    0.00    0.01    0.00    0.00     0.00    0.00    0.00    0.00
  327    0.00    0.00    0.42    0.04    0.00    0.00   73.87    0.46    0.67    0.46    0.00    0.00    0.01    0.00    0.00     0.00    0.00    0.00    0.00
  328    0.00    0.00    0.42    0.04    0.00    0.00   73.54    0.32    0.48    0.46    0.00    0.00    0.01    0.00    0.00     0.00    0.00    0.00    0.00
  329    0.00    0.00    0.41    0.04    0.00    0.00   72.25    1.30    1.93    0.45    0.00    0.00    0.01    0.00    0.00     0.00    0.00    0.00    0.00
  330   11.70    0.00    0.43    0.07    1.52    0.00   80.16    0.06    0.08    0.50    0.00    0.00    0.01    0.43    0.00     0.00    0.00    0.00    0.00
  331    2.80    0.00    0.43    0.10    0.73    0.00   81.31    0.05    0.06    0.53    0.00    0.00    0.01    0.20    0.00     0.00    0.00    0.00    0.00
  332    0.00    0.00    0.43    0.11    0.00    0.00   79.95    1.36    1.73    0.54    0.00    0.00    0.01    0.00    0.00     0.00    0.00    0.00    0.00
  333    0.00    0.00    0.43    0.12    0.00    0.00   78.29    1.66    2.17    0.54    0.00    0.00    0.01    0.00    0.00     0.00    0.00    0.00    0.00
  334    0.00    0.00    0.42    0.12    0.00    0.00   77.19    1.09    1.49    0.54    0.00    0.00    0.01    0.00    0.00     0.00    0.00    0.00    0.00
   11   47.40    0.00   13.03    0.87    3.31    0.00   77.19   21.94   32.79   13.90    0.01    0.00    0.22    0.86    0.22     0.00    0.00    0.00    0.00
  335    3.00    0.00    0.42    0.11    0.00    0.00   80.00    0.01    0.01    0.53    0.00    0.00    0.01    0.00    0.00     0.00    0.00    0.00    0.00
  336    0.00    0.00    0.42    0.11    0.00    0.00   79.29    0.71    0.89    0.53    0.00    0.00    0.01    0.00    0.00     0.00    0.00    0.00    0.00
  337    0.00    0.00    0.41    0.11    0.00    0.00   78.44    0.85    1.09    0.52    0.00    0.00    0.01    0.00    0.00     0.00    0.00    0.00    0.00
  338    0.00    0.00    0.41    0.10    0.00    0.00   77.77    0.67    0.88    0.51    0.00    0.00    0.01    0.00    0.00     0.00    0.00    0.00    0.00
  339    1.00    0.00    0.40    0.10    0.00    0.00   78.75    0.00    0.00    0.50    0.00    0.00    0.01    0.00    0.00     0.00    0.00    0.00    0.00
  340    0.00    0.00    0.40    0.09    0.00    0.00   77.78    0.97    1.21    0.49    0.00    0.00    0.01    0.00    0.00     0.00    0.00    0.00    0.00
  341    0.00    0.00    0.40    0.09    0.00    0.00   74.96    2.83    3.71    0.48    0.00    0.00    0.01    0.00    0.00     0.00    0.00    0.00    0.00
  342    8.40    0.00    0.40    0.10    0.78    0.00   80.86    0.53    0.66    0.50    0.00    0.00    0.01    0.25    0.00     0.00    0.00    0.00    0.00
  343    0.00    0.00    0.40    0.10    0.00    0.00   80.30    0.56    0.70    0.50    0.00    0.00    0.01    0.00    0.00     0.00    0.00    0.00    0.00
  344    0.00    0.00    0.40    0.10    0.00    0.00   79.60    0.69    0.87    0.50    0.00    0.00    0.01    0.00    0.00     0.00    0.00    0.00    0.00
  345    0.50    0.00    0.39    0.10    0.00    0.00   79.60    0.00    0.00    0.49    0.00    0.00    0.01    0.00    0.00     0.00    0.00    0.00    0.00
  346    0.00    0.00    0.39    0.10    0.00    0.00   79.32    0.29    0.59    0.49    0.00    0.00    0.01    0.00    0.00     0.00    0.00    0.00    0.00
  347    0.00    0.00    0.38    0.09    0.00    0.00   78.87    0.44    0.91    0.48    0.00    0.00    0.01    0.00    0.00     0.00    0.00    0.00    0.00
  348    0.00    0.00    0.38    0.09    0.00    0.00   78.17    0.71    1.49    0.47    0.00    0.00    0.01    0.00    0.00     0.00    0.00    0.00    0.00
  349    0.00    0.00    0.38    0.09    0.00    0.00   77.70    0.46    0.99    0.46    0.00    0.00    0.01    0.00    0.00     0.00    0.00    0.00    0.00
  350    0.00    0.00    0.37    0.08    0.00    0.00   77.35    0.35    0.76    0.46    0.00    0.00    0.01    0.00    0.00     0.00    0.00    0.00    0.00
  351    2.00    0.00    0.37    0.08    0.00    0.00   77.35    0.00    0.00    0.45    0.00    0.00    0.01    0.00    0.00     0.00    0.00    0.00    0.00
  352    2.30    0.00    0.37    0.08    0.00    0.00   77.17    0.18    0.38    0.44    0.00    0.00    0.01    0.00    0.00     0.00    0.00    0.00    0.00
  353    0.00    0.00    0.36    0.07    0.00    0.00   76.99    0.18    0.40    0.43    0.00    0.00    0.01    0.00    0.00     0.00    0.00    0.00    0.00
  354    0.00    0.00    0.36    0.07    0.00    0.00   76.99    0.38    0.76    0.43    0.00    0.00    0.01    0.00    0.00     0.00    0.00    0.00    0.00
  355    3.00    0.00    0.36    0.07    0.00    0.00   76.99    0.00    0.00    0.42    0.00    0.00    0.01    0.00    0.00     0.00    0.00    0.00    0.00
  356   15.00    3.12    0.36    0.09    1.50    0.00   93.59    0.32    0.39    1.83    0.00    0.03    0.01    0.52    0.00     0.02    0.01    0.01    0.00
  357    0.00    0.00    0.36    0.10    0.00    0.00   93.40    0.19    0.23    1.19    0.00    0.02    0.01    0.00    0.00     0.01    0.00    0.00    0.00
  358    0.00    0.00    0.35    0.11    0.00    0.00   93.06    0.35    0.42    0.86    0.00    0.01    0.01    0.00    0.00     0.00    0.00    0.00    0.00
  359    0.00    0.00    0.35    0.11    0.00    0.00   92.20    0.86    1.05    0.69    0.00    0.01    0.01    0.00    0.00     0.00    0.00    0.00    0.00
  360    0.00    0.00    0.35    0.11    0.00    0.00   91.42    0.78    0.95    0.59    0.00    0.00    0.01    0.00    0.00     0.00    0.00    0.00    0.00
  361    0.00    0.00    0.34    0.10    0.00    0.00   90.73    0.69    0.85    0.53    0.00    0.00    0.01    0.00    0.00     0.00    0.00    0.00    0.00
  362    0.00    0.00    0.34    0.10    0.00    0.00   90.29    0.44    0.53    0.49    0.00    0.00    0.01    0.00    0.00     0.00    0.00    0.00    0.00
  363    1.80    0.00    0.34    0.10    0.00    0.00   90.14    0.15    0.31    0.46    0.00    0.00    0.01    0.00    0.00     0.00    0.00    0.00    0.00
  364    2.30    0.00    0.33    0.09    0.00    0.00   90.14    0.00    0.00    0.44    0.00    0.00    0.01    0.00    0.00     0.00    0.00    0.00    0.00
  365    0.00    0.00    0.33    0.09    0.00    0.00   90.14    0.00    0.00    0.43    0.00    0.00    0.01    0.00    0.00     0.00    0.00    0.00    0.00
   12   39.30    3.12   11.60    2.93    2.28    0.00   90.14   14.58   21.02   17.60    0.00    0.07    0.24    0.77    0.00     0.04    0.01    0.02    0.00

 1998 1069.10  208.99  189.82  235.44  245.19    0.00   90.14  522.56  818.85  633.00    0.26    1.66    3.78   25.97   37.89     0.87    0.41    0.55    0.00
1
    SWAT Jun 11 2014    VER 2012/Rev 627                                            

    General Input/Output section (file.cio):                                        
    7/12/2007 12:00:00 AMARCGIS-SWAT interface AV                                   
                                                                                    
Annual Summary for Watershed in year    5 of simulation

UNIT                                    PERCO    TILE                           WATER     SED     NO3     NO3     NO3     NO3        N       P       P
TIME     PREC    SURQ    LATQ     GWQ    LATE       Q     SW       ET     PET   YIELD   YIELD    SURQ    LATQ    PERC    CROP  ORGANIC SOLUBLE ORGANIC TILENO3
         (mm)    (mm)    (mm)    (mm)    (mm)    (mm)    (mm)    (mm)    (mm)    (mm)    (mm)   ------------------(kg nutrient/ha)-------------------- (kg/ha)
    1    2.00    0.00    0.33    0.08    0.00    0.00   90.13    0.01    0.02    0.42    0.00    0.00    0.01    0.00    0.00     0.00    0.00    0.00    0.00
    2    0.00    0.00    0.32    0.08    0.00    0.00   90.06    0.07    0.14    0.41    0.00    0.00    0.01    0.00    0.00     0.00    0.00    0.00    0.00
    3   13.20    0.00    0.32    0.08    0.00    0.00   90.06    0.00    0.00    0.40    0.00    0.00    0.01    0.00    0.00     0.00    0.00    0.00    0.00
    4    0.00    0.00    0.32    0.07    0.00    0.00   89.62    0.44    0.89    0.39    0.00    0.00    0.01    0.00    0.00     0.00    0.00    0.00    0.00
    5    0.00    0.00    0.31    0.07    0.00    0.00   89.50    0.12    0.24    0.39    0.00    0.00    0.01    0.00    0.00     0.00    0.00    0.00    0.00
    6    1.00    0.00    0.31    0.07    0.00    0.00   89.50    0.00    0.00    0.38    0.00    0.00    0.01    0.00    0.00     0.00    0.00    0.00    0.00
    7    0.00    0.00    0.31    0.06    0.00    0.00   89.24    0.26    0.52    0.37    0.00    0.00    0.01    0.00    0.00     0.00    0.00    0.00    0.00
    8    2.30    0.00    0.31    0.06    0.00    0.00   89.24    0.00    0.00    0.37    0.00    0.00    0.01    0.00    0.00     0.00    0.00    0.00    0.00
    9   23.40    0.00    0.30    0.06    0.00    0.00   89.19    0.05    0.10    0.36    0.00    0.00    0.01    0.00    0.00     0.00    0.00    0.00    0.00
   10    0.00    0.00    0.30    0.05    0.00    0.00   89.07    0.12    0.23    0.35    0.00    0.00    0.01    0.00    0.00     0.00    0.00    0.00    0.00
   11    6.60    0.00    0.30    0.05    0.00    0.00   89.07    0.00    0.00    0.35    0.00    0.00    0.01    0.00    0.00     0.00    0.00    0.00    0.00
   12    3.30    0.00    0.29    0.05    0.00    0.00   89.04    0.03    0.06    0.34    0.00    0.00    0.01    0.00    0.00     0.00    0.00    0.00    0.00
   13    4.10    0.00    0.29    0.05    0.00    0.00   89.04    0.00    0.00    0.34    0.00    0.00    0.01    0.00    0.00     0.00    0.00    0.00    0.00
   14   10.70    0.00    0.29    0.04    0.00    0.00   88.75    0.29    0.59    0.33    0.00    0.00    0.01    0.00    0.00     0.00    0.00    0.00    0.00
   15   21.30    0.00    0.29    0.04    0.00    0.00   88.65    0.10    0.20    0.33    0.00    0.00    0.01    0.00    0.00     0.00    0.00    0.00    0.00
   16    0.00    0.00    0.28    0.04    0.00    0.00   88.65    0.00    0.00    0.32    0.00    0.00    0.01    0.00    0.00     0.00    0.00    0.00    0.00
   17    0.00    0.00    0.28    0.04    0.00    0.00   88.45    0.20    0.41    0.32    0.00    0.00    0.01    0.00    0.00     0.00    0.00    0.00    0.00
   18   21.60    0.00    0.28    0.04    0.00    0.00   88.45    0.00    0.00    0.31    0.00    0.00    0.01    0.00    0.00     0.00    0.00    0.00    0.00
   19    0.00    2.78    0.27    0.04    0.00    0.00  101.10    0.07    0.14    1.53    0.00    0.02    0.01    0.00    0.00     0.02    0.01    0.01    0.00
   20    0.00    0.00    0.27    0.03    0.00    0.00  100.85    0.24    0.49    0.96    0.00    0.01    0.01    0.00    0.00     0.01    0.00    0.00    0.00
   21    0.00    0.00    0.27    0.03    0.00    0.00  100.61    0.25    0.50    0.66    0.00    0.01    0.01    0.00    0.00     0.00    0.00    0.00    0.00
   22    0.00    0.00    0.27    0.03    0.00    0.00  100.61    0.00    0.00    0.50    0.00    0.00    0.01    0.00    0.00     0.00    0.00    0.00    0.00
   23    0.00    3.80    0.26    0.03    0.00    0.00  109.23    0.01    0.02    2.09    0.00    0.02    0.01    0.00    0.00     0.02    0.01    0.01    0.00
   24   17.00   33.75    0.27    0.12    4.45    0.00  114.86    0.00    0.00   16.59    0.00    0.09    0.01    1.97    0.00     0.18    0.05    0.11    0.00
   25    1.30   17.26    0.28    0.27    5.89    0.00  114.70    0.00    0.00   16.88    0.00    0.13    0.01    2.03    0.00     0.17    0.04    0.10    0.00
   26    0.00    0.00    0.28    0.35    0.00    0.00  114.36    0.34    0.69    9.18    0.00    0.07    0.01    0.00    0.00     0.07    0.02    0.04    0.00
   27    0.80    0.00    0.28    0.39    0.00    0.00  114.36    0.00    0.00    5.47    0.00    0.04    0.01    0.00    0.00     0.03    0.01    0.02    0.00
   28    1.50    0.00    0.28    0.40    0.00    0.00  114.36    0.00    0.00    3.49    0.00    0.02    0.01    0.00    0.00     0.01    0.01    0.01    0.00
   29    2.30    0.00    0.27    0.40    0.00    0.00  114.02    0.33    0.67    2.37    0.00    0.01    0.01    0.00    0.00     0.01    0.00    0.00    0.00
   30    4.60    0.00    0.27    0.39    0.00    0.00  114.02    0.00    0.00    1.70    0.00    0.01    0.01    0.00    0.00     0.00    0.00    0.00    0.00
   31    0.00    0.00    0.27    0.38    0.00    0.00  113.86    0.16    0.32    1.30    0.00    0.00    0.01    0.00    0.00     0.00    0.00    0.00    0.00
    1  137.01   57.59    8.98    3.91   10.34    0.00  113.86    3.10    6.22   69.20    0.01    0.42    0.22    4.00    0.00     0.52    0.15    0.31    0.00
   32    0.00    0.00    0.26    0.36    0.00    0.00  113.60    0.27    0.53    1.04    0.00    0.00    0.01    0.00    0.00     0.00    0.00    0.00    0.00
   33    7.10    0.00    0.26    0.35    0.00    0.00  113.33    0.27    0.53    0.87    0.00    0.00    0.01    0.00    0.00     0.00    0.00    0.00    0.00
   34    0.00    5.82    0.26    0.34    0.55    0.00  118.69    0.78    1.55    3.47    0.00    0.05    0.01    0.22    0.00     0.03    0.01    0.01    0.00
   35    0.00    0.00    0.26    0.34    0.00    0.00  118.69    0.42    0.85    2.04    0.00    0.03    0.01    0.00    0.00     0.01    0.00    0.01    0.00
   36    1.30    0.00    0.25    0.32    0.00    0.00  118.69    0.22    0.44    1.37    0.00    0.01    0.01    0.00    0.00     0.00    0.00    0.00    0.00
   37    0.00    0.00    0.25    0.31    0.00    0.00  118.36    0.33    0.66    1.02    0.00    0.01    0.01    0.00    0.00     0.00    0.00    0.00    0.00
   38    2.00    0.00    0.25    0.30    0.08    0.00  118.23    0.00    0.00    0.82    0.00    0.00    0.01    0.03    0.00     0.00    0.00    0.00    0.00
   39    5.10    0.00    0.25    0.29    0.00    0.00  118.23    0.00    0.00    0.70    0.00    0.00    0.01    0.00    0.00     0.00    0.00    0.00    0.00
   40    0.00    0.00    0.25    0.27    0.00    0.00  117.95    0.28    0.56    0.62    0.00    0.00    0.01    0.00    0.00     0.00    0.00    0.00    0.00
   41    0.00    0.00    0.24    0.26    0.00    0.00  117.95    0.35    0.71    0.57    0.00    0.00    0.01    0.00    0.00     0.00    0.00    0.00    0.00
   42    0.00    0.00    0.24    0.25    0.00    0.00  117.74    0.21    0.41    0.53    0.00    0.00    0.01    0.00    0.00     0.00    0.00    0.00    0.00
   43    5.10   18.23    0.24    0.25    0.80    0.00  122.43    0.00    0.00    8.96    0.00    0.07    0.01    0.32    0.00     0.08    0.02    0.05    0.00
   44    7.40   28.02    0.25    0.38    6.54    0.00  119.91    0.00    0.00   17.76    0.00    0.14    0.01    2.05    0.00     0.18    0.04    0.11    0.00
   45    0.00    0.00    0.24    0.44    0.00    0.00  119.77    0.14    0.28    9.38    0.00    0.07    0.01    0.00    0.00     0.07    0.02    0.04    0.00
   46    0.00    0.00    0.24    0.46    0.00    0.00  119.57    0.20    0.41    5.49    0.00    0.04    0.01    0.00    0.00     0.03    0.01    0.02    0.00
   47    0.00    0.00    0.24    0.46    0.00    0.00  119.57    0.00    0.00    3.47    0.00    0.02    0.01    0.00    0.00     0.01    0.01    0.01    0.00
   48    0.00    0.00    0.24    0.46    0.00    0.00  119.57    0.54    1.07    2.35    0.00    0.01    0.01    0.00    0.00     0.01    0.00    0.00    0.00
   49    0.00    0.00    0.23    0.44    0.00    0.00  119.57    0.33    0.65    1.69    0.00    0.01    0.01    0.00    0.00     0.00    0.00    0.00    0.00
   50    0.00    0.00    0.23    0.43    0.00    0.00  118.81    0.76    1.52    1.29    0.00    0.01    0.01    0.00    0.00     0.00    0.00    0.00    0.00
   51    0.00    0.00    0.23    0.41    0.00    0.00  118.62    0.19    0.37    1.04    0.00    0.00    0.01    0.00    0.00     0.00    0.00    0.00    0.00
   52    1.50    0.00    0.23    0.39    0.00    0.00  118.62    0.00    0.00    0.87    0.00    0.00    0.01    0.00    0.00     0.00    0.00    0.00    0.00
   53    0.00    0.00    0.23    0.37    0.00    0.00  118.23    0.40    0.79    0.76    0.00    0.00    0.01    0.00    0.00     0.00    0.00    0.00    0.00
   54    0.00    0.00    0.22    0.36    0.00    0.00  118.04    0.18    0.37    0.68    0.00    0.00    0.01    0.00    0.00     0.00    0.00    0.00    0.00
   55    0.00    0.00    0.22    0.34    0.00    0.00  117.85    0.19    0.38    0.63    0.00    0.00    0.01    0.00    0.00     0.00    0.00    0.00    0.00
   56    0.00    0.00    0.22    0.32    0.00    0.00  117.73    0.12    0.23    0.59    0.00    0.00    0.01    0.00    0.00     0.00    0.00    0.00    0.00
   57    0.00    0.00    0.22    0.31    0.00    0.00  117.25    0.48    0.96    0.55    0.00    0.00    0.01    0.00    0.00     0.00    0.00    0.00    0.00
   58    0.00    0.00    0.21    0.29    0.00    0.00  117.11    0.14    0.29    0.53    0.00    0.00    0.01    0.00    0.00     0.00    0.00    0.00    0.00
   59    4.80    0.00    0.21    0.28    0.00    0.00  117.11    0.04    0.07    0.51    0.00    0.00    0.01    0.00    0.00     0.00    0.00    0.00    0.00
    2   34.30   52.08    6.68    9.80    7.96    0.00  117.11    6.82   13.64   69.59    0.01    0.50    0.21    2.63    0.00     0.44    0.12    0.26    0.00
   60   18.00    0.00    0.21    0.27    0.00    0.00  117.11    0.06    0.12    0.49    0.00    0.00    0.01    0.00    0.00     0.00    0.00    0.00    0.00
   61    1.00    0.00    0.21    0.26    0.00    0.00  117.10    0.01    0.03    0.47    0.00    0.00    0.01    0.00    0.00     0.00    0.00    0.00    0.00
   62    1.30    0.00    0.21    0.24    0.00    0.00  116.95    0.15    0.30    0.45    0.00    0.00    0.01    0.00    0.00     0.00    0.00    0.00    0.00
   63    0.00   11.13    0.21    0.28    2.58    0.00  120.00    0.43    0.86    5.71    0.00    0.09    0.01    0.61    0.00     0.04    0.01    0.02    0.00
   64    0.00    0.00    0.20    0.30    0.00    0.00  119.36    0.65    1.29    3.05    0.00    0.04    0.01    0.00    0.00     0.01    0.01    0.01    0.00
   65   20.80    0.00    0.20    0.30    0.00    0.00  119.36    0.00    0.00    1.87    0.00    0.02    0.01    0.00    0.00     0.01    0.00    0.00    0.00
   66    7.10    0.00    0.20    0.29    0.00    0.00  119.36    0.00    0.00    1.27    0.00    0.01    0.01    0.00    0.00     0.00    0.00    0.00    0.00
   67    0.00    0.00    0.20    0.29    0.00    0.00  119.04    0.32    0.64    0.94    0.00    0.01    0.01    0.00    0.00     0.00    0.00    0.00    0.00
   68    0.00    0.00    0.20    0.28    0.00    0.00  118.60    0.44    0.88    0.75    0.00    0.00    0.01    0.00    0.00     0.00    0.00    0.00    0.00
   69    0.00    0.00    0.19    0.26    0.00    0.00  118.24    0.36    0.71    0.63    0.00    0.00    0.01    0.00    0.00     0.00    0.00    0.00    0.00
   70    0.00    0.00    0.19    0.25    0.00    0.00  118.01    0.24    0.47    0.55    0.00    0.00    0.01    0.00    0.00     0.00    0.00    0.00    0.00
   71    5.30    0.00    0.19    0.24    0.00    0.00  118.01    0.00    0.00    0.50    0.00    0.00    0.01    0.00    0.00     0.00    0.00    0.00    0.00
   72    0.00    0.00    0.19    0.23    0.00    0.00  117.28    0.73    1.46    0.46    0.00    0.00    0.01    0.00    0.00     0.00    0.00    0.00    0.00
   73    0.00    0.00    0.19    0.22    0.00    0.00  116.92    0.36    0.72    0.44    0.00    0.00    0.01    0.00    0.00     0.00    0.00    0.00    0.00
   74    2.50    0.00    0.19    0.21    0.00    0.00  116.83    0.09    0.18    0.41    0.00    0.00    0.01    0.00    0.00     0.00    0.00    0.00    0.00
   75    0.00    0.00    0.18    0.20    0.00    0.00  116.54    0.29    0.58    0.40    0.00    0.00    0.01    0.00    0.00     0.00    0.00    0.00    0.00
   76    0.00    0.00    0.18    0.19    0.00    0.00  116.54    0.80    1.59    0.38    0.00    0.00    0.01    0.00    0.00     0.00    0.00    0.00    0.00
   77    0.00   19.63    0.18    0.24    3.06    0.00  119.99    0.77    1.53    9.62    0.00    0.10    0.01    0.67    0.00     0.08    0.02    0.05    0.00
   78    1.50   13.68    0.20    0.43    8.37    0.00  113.98    0.79    0.96   11.50    0.00    0.14    0.01    2.34    0.00     0.08    0.03    0.05    0.00
   79    0.00    0.00    0.20    0.52    0.00    0.00  112.88    1.09    1.32    6.27    0.00    0.07    0.01    0.00    0.00     0.03    0.01    0.02    0.00
   80    2.00    0.00    0.20    0.56    0.00    0.00  112.88    0.00    0.00    3.81    0.00    0.04    0.01    0.00    0.00     0.01    0.01    0.01    0.00
   81   43.70    0.00    0.20    0.57    0.00    0.00  112.88    0.00    0.00    2.53    0.00    0.02    0.01    0.00    0.00     0.01    0.00    0.00    0.00
   82    0.00    0.00    0.19    0.56    0.00    0.00  112.09    0.79    1.57    1.81    0.00    0.01    0.01    0.00    0.00     0.00    0.00    0.00    0.00
   83    0.00    0.00    0.19    0.55    0.00    0.00  111.58    0.51    1.02    1.38    0.00    0.01    0.01    0.00    0.00     0.00    0.00    0.00    0.00
   84    0.00    9.83    0.20    0.60    3.55    0.00  114.76    0.73    1.45    5.73    0.00    0.08    0.01    0.64    0.00     0.03    0.01    0.02    0.00
   85    0.00    0.00    0.20    0.61    0.00    0.00  114.12    0.65    1.28    3.32    0.00    0.04    0.01    0.00    0.00     0.01    0.01    0.01    0.00
   86    0.00    0.00    0.19    0.61    0.00    0.00  113.47    0.65    1.29    2.18    0.00    0.02    0.01    0.00    0.00     0.01    0.00    0.00    0.00
   87    0.00   13.61    0.20    0.69    4.88    0.00  114.76    0.58    1.16    7.97    0.00    0.08    0.01    0.87    0.00     0.04    0.02    0.02    0.00
   88    0.00    2.20    0.23    0.85    6.62    0.00  106.99    2.25    2.73    5.67    0.00    0.07    0.01    1.17    0.00     0.03    0.01    0.02    0.00
   89    0.00    0.00    0.25    1.01    5.19    0.00   96.21    2.77    3.35    3.76    0.00    0.04    0.01    1.33    0.12     0.01    0.01    0.01    0.00
[...]
  321    0.00    0.00    0.46    0.09    0.00    0.00   42.91    0.31    1.91    0.55    0.00    0.00    0.01    0.00    0.00     0.00    0.00    0.00    0.00
  322    0.00    0.00    0.46    0.08    0.00    0.00   42.69    0.22    1.34    0.54    0.00    0.00    0.01    0.00    0.00     0.00    0.00    0.00    0.00
  323    0.00    0.00    0.45    0.08    0.00    0.00   42.37    0.32    1.98    0.53    0.00    0.00    0.01    0.00    0.00     0.00    0.00    0.00    0.00
  324    0.00    0.00    0.45    0.07    0.00    0.00   42.23    0.14    0.90    0.52    0.00    0.00    0.01    0.00    0.00     0.00    0.00    0.00    0.00
  325    0.00    0.00    0.44    0.07    0.00    0.00   41.96    0.27    1.68    0.52    0.00    0.00    0.01    0.00    0.00     0.00    0.00    0.00    0.00
  326    0.00    0.00    0.44    0.07    0.00    0.00   41.72    0.24    1.52    0.51    0.00    0.00    0.01    0.00    0.00     0.00    0.00    0.00    0.00
  327    0.00    0.00    0.44    0.06    0.00    0.00   41.37    0.35    2.27    0.50    0.00    0.00    0.01    0.00    0.00     0.00    0.00    0.00    0.00
  328    0.00    0.00    0.43    0.06    0.00    0.00   41.10    0.26    1.71    0.49    0.00    0.00    0.01    0.00    0.00     0.00    0.00    0.00    0.00
  329    0.00    0.00    0.43    0.06    0.00    0.00   40.90    0.20    1.30    0.49    0.00    0.00    0.01    0.00    0.00     0.00    0.00    0.00    0.00
  330    0.00    0.00    0.42    0.06    0.00    0.00   40.67    0.23    1.47    0.48    0.00    0.00    0.01    0.00    0.00     0.00    0.00    0.00    0.00
  331    0.00    0.00    0.42    0.05    0.00    0.00   40.50    0.17    1.16    0.47    0.00    0.00    0.00    0.00    0.00     0.00    0.00    0.00    0.00
  332    0.00    0.00    0.42    0.05    0.00    0.00   40.32    0.18    1.19    0.47    0.00    0.00    0.00    0.00    0.00     0.00    0.00    0.00    0.00
  333    0.00    0.00    0.41    0.05    0.00    0.00   40.06    0.26    1.71    0.46    0.00    0.00    0.00    0.00    0.00     0.00    0.00    0.00    0.00
  334    0.00    0.00    0.41    0.05    0.00    0.00   39.80    0.26    1.75    0.45    0.00    0.00    0.00    0.00    0.00     0.00    0.00    0.00    0.00
  335    0.00    0.00    0.40    0.04    0.00    0.00   39.49    0.32    2.14    0.45    0.00    0.00    0.00    0.00    0.00     0.00    0.00    0.00    0.00
   11    0.00    0.00   13.98    2.90    0.00    0.00   39.49    8.98   46.41   16.88    0.00    0.00    0.17    0.00    0.04     0.00    0.00    0.00    0.00
  336    0.00    0.00    0.40    0.04    0.00    0.00   39.26    0.23    1.58    0.44    0.00    0.00    0.00    0.00    0.00     0.00    0.00    0.00    0.00
  337    0.00    0.00    0.40    0.04    0.00    0.00   39.11    0.15    1.03    0.44    0.00    0.00    0.00    0.00    0.00     0.00    0.00    0.00    0.00
  338    0.00    0.00    0.39    0.04    0.00    0.00   38.90    0.21    1.46    0.43    0.00    0.00    0.00    0.00    0.00     0.00    0.00    0.00    0.00
  339    0.00    0.00    0.39    0.04    0.00    0.00   38.76    0.13    0.93    0.42    0.00    0.00    0.00    0.00    0.00     0.00    0.00    0.00    0.00
  340    0.00    0.00    0.38    0.03    0.00    0.00   38.63    0.13    0.91    0.42    0.00    0.00    0.00    0.00    0.00     0.00    0.00    0.00    0.00
  341    0.00    0.00    0.38    0.03    0.00    0.00   38.46    0.17    1.22    0.41    0.00    0.00    0.00    0.00    0.00     0.00    0.00    0.00    0.00
  342    0.00    0.00    0.38    0.03    0.00    0.00   38.22    0.24    1.68    0.41    0.00    0.00    0.00    0.00    0.00     0.00    0.00    0.00    0.00
  343    0.00    0.00    0.37    0.03    0.00    0.00   38.02    0.20    1.42    0.40    0.00    0.00    0.00    0.00    0.00     0.00    0.00    0.00    0.00
  344    0.00    0.00    0.37    0.03    0.00    0.00   37.84    0.18    1.27    0.40    0.00    0.00    0.00    0.00    0.00     0.00    0.00    0.00    0.00
  345    0.00    0.00    0.37    0.03    0.00    0.00   37.43    0.42    3.01    0.39    0.00    0.00    0.00    0.00    0.00     0.00    0.00    0.00    0.00
  346    0.00    0.00    0.36    0.03    0.00    0.00   37.11    0.32    2.31    0.39    0.00    0.00    0.00    0.00    0.00     0.00    0.00    0.00    0.00
  347    0.00    0.00    0.36    0.02    0.00    0.00   37.05    0.06    0.44    0.38    0.00    0.00    0.00    0.00    0.00     0.00    0.00    0.00    0.00
  348    0.00    0.00    0.36    0.02    0.00    0.00   36.99    0.06    0.42    0.38    0.00    0.00    0.00    0.00    0.00     0.00    0.00    0.00    0.00
  349    0.00    0.00    0.35    0.02    0.00    0.00   36.95    0.05    0.33    0.37    0.00    0.00    0.00    0.00    0.00     0.00    0.00    0.00    0.00
  350    0.00    0.00    0.35    0.02    0.00    0.00   36.91    0.03    0.25    0.37    0.00    0.00    0.00    0.00    0.00     0.00    0.00    0.00    0.00
  351    0.00    0.00    0.35    0.02    0.00    0.00   36.86    0.05    0.38    0.37    0.00    0.00    0.00    0.00    0.00     0.00    0.00    0.00    0.00
  352    0.00    0.00    0.34    0.02    0.00    0.00   36.70    0.17    1.24    0.36    0.00    0.00    0.00    0.00    0.00     0.00    0.00    0.00    0.00
  353    0.00    0.00    0.34    0.02    0.00    0.00   36.64    0.05    0.40    0.36    0.00    0.00    0.00    0.00    0.00     0.00    0.00    0.00    0.00
  354    0.00    0.00    0.34    0.02    0.00    0.00   36.61    0.03    0.24    0.35    0.00    0.00    0.00    0.00    0.00     0.00    0.00    0.00    0.00
  355    0.00    0.00    0.33    0.02    0.00    0.00   36.54    0.07    0.54    0.35    0.00    0.00    0.00    0.00    0.00     0.00    0.00    0.00    0.00
  356    0.00    0.00    0.33    0.02    0.00    0.00   36.48    0.05    0.41    0.34    0.00    0.00    0.00    0.00    0.00     0.00    0.00    0.00    0.00
  357    0.00    0.00    0.33    0.02    0.00    0.00   36.42    0.07    0.53    0.34    0.00    0.00    0.00    0.00    0.00     0.00    0.00    0.00    0.00
  358    0.00    0.00    0.32    0.01    0.00    0.00   36.24    0.18    1.36    0.34    0.00    0.00    0.00    0.00    0.00     0.00    0.00    0.00    0.00
  359    0.00    0.00    0.32    0.01    0.00    0.00   36.05    0.18    1.41    0.33    0.00    0.00    0.00    0.00    0.00     0.00    0.00    0.00    0.00
  360    0.00    0.00    0.32    0.01    0.00    0.00   35.95    0.11    0.82    0.33    0.00    0.00    0.00    0.00    0.00     0.00    0.00    0.00    0.00
  361    0.00    0.00    0.31    0.01    0.00    0.00   35.87    0.08    0.59    0.33    0.00    0.00    0.00    0.00    0.00     0.00    0.00    0.00    0.00
  362    0.00    0.00    0.31    0.01    0.00    0.00   35.80    0.07    0.55    0.32    0.00    0.00    0.00    0.00    0.00     0.00    0.00    0.00    0.00
  363    0.00    0.00    0.31    0.01    0.00    0.00   35.78    0.02    0.14    0.32    0.00    0.00    0.00    0.00    0.00     0.00    0.00    0.00    0.00
  364    0.00    0.00    0.30    0.01    0.00    0.00   35.70    0.09    0.71    0.32    0.00    0.00    0.00    0.00    0.00     0.00    0.00    0.00    0.00
  365    0.00    0.00    0.30    0.01    0.00    0.00   35.59    0.10    0.82    0.31    0.00    0.00    0.00    0.00    0.00     0.00    0.00    0.00    0.00
   12    0.00    0.00   10.45    0.68    0.00    0.00   35.59    3.89   28.40   11.13    0.00    0.00    0.12    0.00    0.00     0.00    0.00    0.00    0.00

 2004  954.09  122.72  204.46  168.64  154.44    0.00   35.59  607.94  864.67  499.00    0.20    1.39    2.98   13.99   35.82     1.05    0.65    0.54    0.00
1
    SWAT Jun 11 2014    VER 2012/Rev 627                                            

    General Input/Output section (file.cio):                                        
    7/12/2007 12:00:00 AMARCGIS-SWAT interface AV                                   
                                                                                    
    FINAL VALUES

1
    SWAT Jun 11 2014    VER 2012/Rev 627                                            

    General Input/Output section (file.cio):                                        
    7/12/2007 12:00:00 AMARCGIS-SWAT interface AV                                   
                                                                                    
                                            Average Plant Values (kg/ha)

  HRU       1 SUB   1 FRSD  Yld =  8053.3 BIOM =  11504.7
  HRU       2 SUB   1 FRSD  Yld =  7650.6 BIOM =  10929.4
  HRU       3 SUB   1 FRSD  Yld =  8037.4 BIOM =  11481.9
  HRU       4 SUB   1 FRSD  Yld =  8079.2 BIOM =  11541.7
  HRU       5 SUB   1 FRSE  Yld =  7362.6 BIOM =  10518.0
  HRU       6 SUB   1 FRSE  Yld =  7010.2 BIOM =  10014.5
  HRU       7 SUB   1 FRSE  Yld =  7326.3 BIOM =  10466.1
  HRU       8 SUB   1 FRSE  Yld =  7227.3 BIOM =  10324.7
  HRU       9 SUB   1 GRSH  Yld =     0.0 BIOM =      0.0
  HRU      10 SUB   1 GRSH  Yld =     0.0 BIOM =      0.0
  HRU      11 SUB   1 GRSH  Yld =     0.0 BIOM =      0.0
  HRU      12 SUB   1 GRSH  Yld =     0.0 BIOM =      0.0
  HRU      13 SUB   1 TIMO  Yld =     0.0 BIOM =      0.0
  HRU      14 SUB   1 TIMO  Yld =     0.0 BIOM =      0.0
  HRU      15 SUB   1 TIMO  Yld =     0.0 BIOM =      0.0
  HRU      16 SUB   1 CSIL  Yld =  2495.9 BIOM =   5913.4
  HRU      17 SUB   1 CSIL  Yld =  2372.9 BIOM =   5607.9
  HRU      18 SUB   1 CSIL  Yld =  2527.3 BIOM =   5968.0
  HRU      19 SUB   1 TIMO  Yld =     0.0 BIOM =      0.0

    HRU STATISTICS

                AVE ANNUAL VALUES

   HRU  SUB  SOIL       AREAkm2    CN     AWCmm   USLE_LS  IRRmm  AUTONkh AUTOPkh  MIXEF PRECmm SURQGENmm   GWQmm    ETmm   SEDth  NO3kgh  ORGNkgh BIOMth   YLDth  SURQmm
      1   1   NY026      .265E+01   60.22   95.12   10.17    0.00    0.00    0.00    0.20 1128.74  204.66  359.72  581.31    0.21    6.96    0.40   11.51    8.06  203.76
      2   1   NY056      .260E+01   60.22   88.41   10.29    0.00    0.00    0.00    0.20 1128.74  173.49  451.86  523.72    0.28    7.44    0.37   10.93    7.65  172.84
      3   1   NY129      .200E+01   60.22   90.67    8.66    0.00    0.00    0.00    0.20 1128.74  172.38  388.77  575.68    0.22    2.65    0.26   11.49    8.04  171.45
      4   1   NY132      .631E+01   60.22  105.32   20.84    0.00    0.00    0.00    0.20 1128.74  173.91  404.96  565.41    0.24    4.57    0.43   11.55    8.08  172.49
      5   1   NY026      .865E+00   54.74   95.12    7.98    0.00    0.00    0.00    0.20 1128.74  180.06  380.00  583.88    0.24    5.88    0.53   10.52    7.37  179.47
      6   1   NY056      .449E+00   54.74   88.41   14.88    0.00    0.00    0.00    0.20 1128.74  150.86  493.04  506.62    0.42    7.86    0.95   10.02    7.01  150.50
      7   1   NY129      .335E+00   54.74   90.67   10.13    0.00    0.00    0.00    0.20 1128.74  136.16  424.21  575.48    0.26    2.46    0.45   10.47    7.33  135.61
      8   1   NY132      .286E+01   54.74  105.32   14.36    0.00    0.00    0.00    0.20 1128.74  127.61  501.81  518.55    0.31    6.54    0.56   10.33    7.23  127.04
      9   1   NY026      .479E+01   56.30   95.12    5.99    0.00    0.00    0.00    0.20 1128.74  189.95  386.76  563.48    0.22    6.42    0.14    8.39    0.00  188.68
     10   1   NY056      .684E+00   56.30   88.41    8.61    0.00    0.00    0.00    0.20 1128.74  179.48  406.94  551.89    0.25    4.96    0.23    7.86    0.00  178.89
     11   1   NY129      .516E+01   56.30   90.67    7.53    0.00    0.00    0.00    0.20 1128.74  142.96  431.18  558.67    0.25    2.30    0.11    8.09    0.00  141.51
     12   1   NY132      .841E+00   56.30  105.32   11.91    0.00    0.00    0.00    0.20 1128.74  161.24  413.61  561.63    0.25    3.77    0.27    8.23    0.00  160.58
     13   1   NY026      .290E+01   61.78   95.12    6.31    0.00    0.00    0.00    0.20 1128.74  213.71  349.57  582.26    0.20    6.79    0.28   13.02    2.46  212.56
     14   1   NY129      .303E+01   61.78   90.67    6.57    0.00    0.00    0.00    0.20 1128.74  184.94  377.63  576.88    0.22    2.79    0.22   12.74    2.42  183.59
     15   1   NY132      .449E+00   61.78  105.32   12.71    0.00    0.00    0.00    0.20 1128.74  183.70  390.42  571.60    0.27    5.87    0.54   12.77    2.45  183.11
     16   1   NY026      .242E+00   64.91   95.12    6.81    0.00    0.00    0.00    0.65 1128.74  226.70  313.65  598.83    0.64    4.32   53.51    5.92    2.50  225.74
     17   1   NY056      .696E-01   64.91   88.41    5.77    0.00    0.00    0.00    0.65 1128.74  217.72  335.05  586.04    0.71    4.55   42.88    5.61    2.37  217.09
     18   1   NY129      .531E+00   64.91   90.67    4.81    0.00    0.00    0.00    0.65 1128.74  205.62  340.11  591.06    0.56    3.02   37.18    5.97    2.53  204.70
     19   1   NY056      .279E+00   64.91   88.41   10.23    0.00    0.00    0.00    0.20 1128.74  219.09  353.04  570.77    0.22    4.95    0.49   12.47    2.37  218.43



                AVE MONTHLY BASIN VALUES
                   SNOW                      WATER               SED
  MON     RAIN     FALL   SURF Q    LAT Q    YIELD       ET    YIELD      PET
          (MM)     (MM)     (MM)     (MM)     (MM)     (MM)   (T/HA)     (MM)
    1    88.88    69.96    28.06    12.79    50.88     5.03     0.01     9.01
    2    53.41    45.58    27.91     9.45    42.57     8.05     0.01    15.08
    3    91.48    68.92    73.06     9.35   100.34    22.64     0.03    35.49
    4    91.39     9.37    12.83    14.59    74.19    52.13     0.04    74.81
    5   120.87     3.89     1.59    17.47    49.76    71.50     0.03   112.30
    6   121.71     0.00     0.91    19.00    45.31    92.99     0.03   119.17
    7   116.33     0.00     1.90    19.80    38.41   110.73     0.02   136.92
    8   106.31     0.00     0.11    18.28    26.18    83.23     0.01   117.32
    9   120.90     0.00     3.30    18.06    32.77    51.06     0.02    81.96
   10    78.46     2.36     2.32    19.24    36.64    35.27     0.02    53.60
   11    65.52    16.94     1.66    17.31    33.66    20.20     0.02    34.63
   12    74.81    52.60    21.98    15.87    49.19     9.09     0.01    17.64

     AVE ANNUAL BASIN STRESS DAYS
               WATER STRESS DAYS =     4.14
               TEMPERATURE STRESS DAYS =    52.72
               NITROGEN STRESS DAYS =    35.03
               PHOSPHORUS STRESS DAYS =     0.15
               AERATION STRESS DAYS =     0.00
1
    SWAT Jun 11 2014    VER 2012/Rev 627                                            

    General Input/Output section (file.cio):                                        
    7/12/2007 12:00:00 AMARCGIS-SWAT interface AV                                   
                                                                                    
         AVE ANNUAL BASIN VALUES

              PRECIP =   1128.9 MM
              SNOW FALL =  268.37 MM
              SNOW MELT =   269.20 MM
              SUBLIMATION =    11.91 MM
              SURFACE RUNOFF Q =   174.91 MM
              LATERAL SOIL Q =  190.99 MM
              TILE Q =     0.00 MM
              GROUNDWATER (SHAL AQ) Q =   214.06 MM
              GROUNDWATER (DEEP AQ) Q =     0.00 MM
              REVAP (SHAL AQ => SOIL/PLANTS) =    0.00 MM
              DEEP AQ RECHARGE =    11.26 MM
              TOTAL AQ RECHARGE =  225.29 MM
              TOTAL WATER YLD =   578.85 MM
              PERCOLATION OUT OF SOIL =  223.79 MM
              ET =    561.9 MM
              PET =    807.8MM
              TRANSMISSION LOSSES =     1.10 MM
              SEPTIC INFLOW =       0.00 MM
              TOTAL SEDIMENT LOADING =     0.249 T/HA
              TILE FROM IMPOUNDED WATER =     0.000 (MM)
              EVAPORATION FROM IMPOUNDED WATER =     0.000 (MM)
              SEEPAGE INTO SOIL FROM IMPOUNDED WATER =    0.000 (MM)
              OVERFLOW FROM IMPOUNDED WATER =    0.000 (MM)
1
    SWAT Jun 11 2014    VER 2012/Rev 627                                            

    General Input/Output section (file.cio):                                        
    7/12/2007 12:00:00 AMARCGIS-SWAT interface AV                                   
                                                                                    
              AVE ANNUAL BASIN VALUES


              NUTRIENTS
                   ORGANIC N =     1.270 (KG/HA)
                   ORGANIC P =     0.703 (KG/HA)
                   NO3 YIELD (SQ) =     1.599 (KG/HA)
                   NO3 YIELD (LAT) =    3.379 (KG/HA)
                   NO3 YIELD (TILE) =    0.000 (KG/HA)
                   SOLP YIELD (TILE) =    0.000(KG/HA)
                   SOLP YIELD (SURF INLET RISER) =    0.000 (KG/HA)
                   SOL P YIELD =    0.622 (KG/HA)
                   NO3 LEACHED =    24.248 (KG/HA)
                   P LEACHED =     0.017 (KG/HA)
                   N UPTAKE =    36.065 (KG/HA)
                   P UPTAKE =   11.072 (KG/HA)
                   NO3 YIELD (GWQ) =     3.717 (KG/HA)
                   ACTIVE TO SOLUTION P FLOW =        -1.120 (KG/HA)
                   ACTIVE TO STABLE P FLOW =        -2.023 (KG/HA)
                   N FERTILIZER APPLIED =     5.215 (KG/HA)
                   P FERTILIZER APPLIED =     1.656 (KG/HA)
                   N FIXATION =     0.000 (KG/HA)
                   DENITRIFICATION =     0.000 (KG/HA)
                   HUMUS MIN ON ACTIVE ORG N =    22.165 (KG/HA)
                   ACTIVE TO STABLE ORG N =   -16.152 (KG/HA)
                   HUMUS MIN ON ACTIVE ORG P =    4.025 (KG/HA)
                   MIN FROM FRESH ORG N =   29.014 (KG/HA)
                   MIN FROM FRESH ORG P =    8.855 (KG/HA)
                   NO3 IN RAINFALL =    25.418 (KG/HA)
                   INITIAL NO3 IN SOIL =      63.372 (KG/HA)
                   FINAL NO3 IN SOIL =        15.556 (KG/HA)
                   INITIAL ORG N IN SOIL =    6458.231 (KG/HA)
                   FINAL ORG N IN SOIL =      6179.667 (KG/HA)
                   INITIAL MIN P IN SOIL =    3498.667 (KG/HA)
                   FINAL MIN P IN SOIL =      3499.010 (KG/HA)
                   INITIAL ORG P IN SOIL =     821.032 (KG/HA)
                   FINAL ORG P IN SOIL =     777.103 (KG/HA)
                   NO3 IN FERT =     0.913 (KG/HA)
                   AMMONIA IN FERT =     1.853 (KG/HA)
                   ORG N IN FERT =     2.449 (KG/HA)
                   MINERAL P IN FERT =     1.378 (KG/HA)
                   ORG P IN FERT =     0.278 (KG/HA)
                   N REMOVED IN YIELD =    10.050 (KG/HA)
                   P REMOVED IN YIELD =     4.465 (KG/HA)
                   AMMONIA VOLATILIZATION =     0.498 (KG/HA)
                   AMMONIA NITRIFICATION =      1.351 (KG/HA)
                   NO3 EVAP-LAYER 2 TO 1 =    2.831

                   DIE-GRO P Q =       0.0 (No/HA)
                   DIE-GRO LP Q =       0.0 (No/HA)
                   DIE-GRO P SED =      0.0 (No/HA)
                   DIE-GRO LP SED =      0.0 (No/HA)
                   BACT P RUNOFF =      0.0 (No/HA)
                   BACT LP RUNOFF =      0.0 (No/HA)
                   BACT P SEDIMENT =      0.0 (No/HA)
                   BACT LP SEDIMENT =      0.0 (No/HA)
                   BACT P INCORP =      0.0 (No/HA)
                   BACT LP INCORP =      0.0 (No/HA)

                   NITRATE SEPTIC =         0.00 (kg/ha)
                   AMMONIA SEPTIC =         0.00 (kg/ha)
                   ORG N SEPTIC =         0.00 (kg/ha)
                   FRESH ORGN SEPTIC =         0.00 (kg/ha)
                   ORG P SEPTIC =         0.00 (kg/ha)
                   FRESH ORGP SEPTIC =         0.00 (kg/ha)
                   SOL P SEPTIC =         0.00 (kg/ha)
                   BOD SEPTIC =         0.00 (kg/ha)
